
*****
***** Welcome to the Xyce(TM) Parallel Electronic Simulator
*****
***** This is version Xyce Release 7.4-opensource
***** Date: Mon Aug 07 19:07:21 UTC 2023


***** Executing netlist /opt/app/Intel/Intel.cir

***** Reading and parsing netlist...
***** Setting up topology...

***** Device Count Summary ...
       I level 1 (Independent Current Source)  8974
       R level 1 (Resistor)                   59600
       V level 1 (Independent Voltage Source)     1
       --------------------------------------------
       Total Devices                          68575
***** Setting up matrix structure...
***** Number of Unknowns = 20002
***** Initializing...

------------------------------------------------------------
Operating point information:
Number of Resistor models: 1
          name R level 1 (Resistor)
          type                
         level               1
            TC2              0
         NARROW              0
           DEFW          1e-05
            TCE              0
           TNOM             27
            TC1              0
              R              1

            RSH              0

Number of Resistor instances: 4300
          name     R_1_85_28_2    R_1_85_28_3    R_1_85_29_1    R_1_85_29_2    R_1_85_29_3    R_1_85_30_1    R_1_85_30_2
    R_1_85_30_3    R_1_85_31_1    R_1_85_31_2    R_1_85_31_3    R_1_85_32_1    R_1_85_32_2    R_1_85_32_3    R_1_85_33_1
    R_1_85_33_2    R_1_85_33_3    R_1_85_34_1    R_1_85_34_2    R_1_85_34_3    R_1_85_35_1    R_1_85_35_2    R_1_85_35_3
    R_1_85_36_1    R_1_85_36_2    R_1_85_36_3    R_1_85_37_1    R_1_85_37_2    R_1_85_37_3    R_1_85_38_1    R_1_85_38_2
    R_1_85_38_3    R_1_85_39_1    R_1_85_39_2    R_1_85_39_3    R_1_85_40_1    R_1_85_40_2    R_1_85_40_3    R_1_85_41_1
    R_1_85_41_2    R_1_85_41_3    R_1_85_42_1    R_1_85_42_2    R_1_85_42_3    R_1_85_43_1    R_1_85_43_2    R_1_85_43_3
    R_1_85_44_1    R_1_85_44_2    R_1_85_44_3    R_1_85_45_1    R_1_85_45_2    R_1_85_45_3    R_1_85_46_1    R_1_85_46_2
    R_1_85_46_3    R_1_85_47_1    R_1_85_47_2    R_1_85_47_3    R_1_85_48_1    R_1_85_48_2    R_1_85_48_3    R_1_85_49_1
    R_1_85_49_2    R_1_85_49_3    R_1_85_50_1    R_1_85_50_2    R_1_85_50_3    R_1_85_51_1    R_1_85_51_2    R_1_85_51_3
    R_1_85_52_1    R_1_85_52_2    R_1_85_52_3    R_1_85_53_1    R_1_85_53_2    R_1_85_53_3    R_1_85_54_1    R_1_85_54_2
    R_1_85_54_3    R_1_85_55_1    R_1_85_55_2    R_1_85_55_3    R_1_85_56_1    R_1_85_56_2    R_1_85_56_3    R_1_85_57_1
    R_1_85_57_2    R_1_85_57_3    R_1_85_58_1    R_1_85_58_2    R_1_85_58_3    R_1_85_59_1    R_1_85_59_2    R_1_85_59_3
    R_1_85_60_1    R_1_85_60_2    R_1_85_60_3    R_1_85_61_1    R_1_85_61_2    R_1_85_61_3    R_1_85_62_1    R_1_85_62_2
    R_1_85_62_3    R_1_85_63_1    R_1_85_63_2    R_1_85_63_3    R_1_85_64_1    R_1_85_64_2    R_1_85_64_3    R_1_85_65_1
    R_1_85_65_2    R_1_85_65_3    R_1_85_66_1    R_1_85_66_2    R_1_85_66_3    R_1_85_67_1    R_1_85_67_2    R_1_85_67_3
    R_1_85_68_1    R_1_85_68_2    R_1_85_68_3    R_1_85_69_1    R_1_85_69_2    R_1_85_69_3    R_1_85_70_1    R_1_85_70_2
    R_1_85_70_3    R_1_85_71_1    R_1_85_71_2    R_1_85_71_3    R_1_85_72_1    R_1_85_72_2    R_1_85_72_3    R_1_85_73_1
    R_1_85_73_2    R_1_85_73_3    R_1_85_74_1    R_1_85_74_2    R_1_85_74_3    R_1_85_75_1    R_1_85_75_2    R_1_85_75_3
    R_1_85_76_1    R_1_85_76_2    R_1_85_76_3    R_1_85_77_1    R_1_85_77_2    R_1_85_77_3    R_1_85_78_1    R_1_85_78_2
    R_1_85_78_3    R_1_85_79_1    R_1_85_79_2    R_1_85_79_3    R_1_85_80_1    R_1_85_80_2    R_1_85_80_3    R_1_85_81_1
    R_1_85_81_2    R_1_85_81_3    R_1_85_82_1    R_1_85_82_2    R_1_85_82_3    R_1_85_83_1    R_1_85_83_2    R_1_85_83_3
    R_1_85_84_1    R_1_85_84_2    R_1_85_84_3    R_1_85_85_1    R_1_85_85_2    R_1_85_85_3    R_1_85_86_1    R_1_85_86_2
    R_1_85_86_3    R_1_85_87_1    R_1_85_87_2    R_1_85_87_3    R_1_85_88_1    R_1_85_88_2    R_1_85_88_3    R_1_85_89_1
    R_1_85_89_2    R_1_85_89_3    R_1_85_90_1    R_1_85_90_2    R_1_85_90_3    R_1_85_91_1    R_1_85_91_2    R_1_85_91_3
    R_1_85_92_1    R_1_85_92_2    R_1_85_92_3    R_1_85_93_1    R_1_85_93_2    R_1_85_93_3    R_1_85_94_1    R_1_85_94_2
    R_1_85_94_3    R_1_85_95_1    R_1_85_95_2    R_1_85_95_3    R_1_85_96_1    R_1_85_96_2    R_1_85_96_3    R_1_85_97_1
    R_1_85_97_2    R_1_85_97_3    R_1_85_98_1    R_1_85_98_2    R_1_85_98_3    R_1_85_99_2    R_1_85_99_3     R_1_86_0_1
     R_1_86_0_2     R_1_86_0_3    R_1_86_10_1    R_1_86_10_2    R_1_86_10_3    R_1_86_11_1    R_1_86_11_2    R_1_86_11_3
    R_1_86_12_1    R_1_86_12_2    R_1_86_12_3    R_1_86_13_1    R_1_86_13_2    R_1_86_13_3    R_1_86_14_1    R_1_86_14_2
    R_1_86_14_3    R_1_86_15_1    R_1_86_15_2    R_1_86_15_3    R_1_86_16_1    R_1_86_16_2    R_1_86_16_3    R_1_86_17_1
    R_1_86_17_2    R_1_86_17_3    R_1_86_18_1    R_1_86_18_2    R_1_86_18_3    R_1_86_19_1    R_1_86_19_2    R_1_86_19_3
     R_1_86_1_1     R_1_86_1_2     R_1_86_1_3    R_1_86_20_1    R_1_86_20_2    R_1_86_20_3    R_1_86_21_1    R_1_86_21_2
    R_1_86_21_3    R_1_86_22_1    R_1_86_22_2    R_1_86_22_3    R_1_86_23_1    R_1_86_23_2    R_1_86_23_3    R_1_86_24_1
    R_1_86_24_2    R_1_86_24_3    R_1_86_25_1    R_1_86_25_2    R_1_86_25_3    R_1_86_26_1    R_1_86_26_2    R_1_86_26_3
    R_1_86_27_1    R_1_86_27_2    R_1_86_27_3    R_1_86_28_1    R_1_86_28_2    R_1_86_28_3    R_1_86_29_1    R_1_86_29_2
    R_1_86_29_3     R_1_86_2_1     R_1_86_2_2     R_1_86_2_3    R_1_86_30_1    R_1_86_30_2    R_1_86_30_3    R_1_86_31_1
    R_1_86_31_2    R_1_86_31_3    R_1_86_32_1    R_1_86_32_2    R_1_86_32_3    R_1_86_33_1    R_1_86_33_2    R_1_86_33_3
    R_1_86_34_1    R_1_86_34_2    R_1_86_34_3    R_1_86_35_1    R_1_86_35_2    R_1_86_35_3    R_1_86_36_1    R_1_86_36_2
    R_1_86_36_3    R_1_86_37_1    R_1_86_37_2    R_1_86_37_3    R_1_86_38_1    R_1_86_38_2    R_1_86_38_3    R_1_86_39_1
    R_1_86_39_2    R_1_86_39_3     R_1_86_3_1     R_1_86_3_2     R_1_86_3_3    R_1_86_40_1    R_1_86_40_2    R_1_86_40_3
    R_1_86_41_1    R_1_86_41_2    R_1_86_41_3    R_1_86_42_1    R_1_86_42_2    R_1_86_42_3    R_1_86_43_1    R_1_86_43_2
    R_1_86_43_3    R_1_86_44_1    R_1_86_44_2    R_1_86_44_3    R_1_86_45_1    R_1_86_45_2    R_1_86_45_3    R_1_86_46_1
    R_1_86_46_2    R_1_86_46_3    R_1_86_47_1    R_1_86_47_2    R_1_86_47_3    R_1_86_48_1    R_1_86_48_2    R_1_86_48_3
    R_1_86_49_1    R_1_86_49_2    R_1_86_49_3     R_1_86_4_1     R_1_86_4_2     R_1_86_4_3    R_1_86_50_1    R_1_86_50_2
    R_1_86_50_3    R_1_86_51_1    R_1_86_51_2    R_1_86_51_3    R_1_86_52_1    R_1_86_52_2    R_1_86_52_3    R_1_86_53_1
    R_1_86_53_2    R_1_86_53_3    R_1_86_54_1    R_1_86_54_2    R_1_86_54_3    R_1_86_55_1    R_1_86_55_2    R_1_86_55_3
    R_1_86_56_1    R_1_86_56_2    R_1_86_56_3    R_1_86_57_1    R_1_86_57_2    R_1_86_57_3    R_1_86_58_1    R_1_86_58_2
    R_1_86_58_3    R_1_86_59_1    R_1_86_59_2    R_1_86_59_3     R_1_86_5_1     R_1_86_5_2     R_1_86_5_3    R_1_86_60_1
    R_1_86_60_2    R_1_86_60_3    R_1_86_61_1    R_1_86_61_2    R_1_86_61_3    R_1_86_62_1    R_1_86_62_2    R_1_86_62_3
    R_1_86_63_1    R_1_86_63_2    R_1_86_63_3    R_1_86_64_1    R_1_86_64_2    R_1_86_64_3    R_1_86_65_1    R_1_86_65_2
    R_1_86_65_3    R_1_86_66_1    R_1_86_66_2    R_1_86_66_3    R_1_86_67_1    R_1_86_67_2    R_1_86_67_3    R_1_86_68_1
    R_1_86_68_2    R_1_86_68_3    R_1_86_69_1    R_1_86_69_2    R_1_86_69_3     R_1_86_6_1     R_1_86_6_2     R_1_86_6_3
    R_1_86_70_1    R_1_86_70_2    R_1_86_70_3    R_1_86_71_1    R_1_86_71_2    R_1_86_71_3    R_1_86_72_1    R_1_86_72_2
    R_1_86_72_3    R_1_86_73_1    R_1_86_73_2    R_1_86_73_3    R_1_86_74_1    R_1_86_74_2    R_1_86_74_3    R_1_86_75_1
    R_1_86_75_2    R_1_86_75_3    R_1_86_76_1    R_1_86_76_2    R_1_86_76_3    R_1_86_77_1    R_1_86_77_2    R_1_86_77_3
    R_1_86_78_1    R_1_86_78_2    R_1_86_78_3    R_1_86_79_1    R_1_86_79_2    R_1_86_79_3     R_1_86_7_1     R_1_86_7_2
     R_1_86_7_3    R_1_86_80_1    R_1_86_80_2    R_1_86_80_3    R_1_86_81_1    R_1_86_81_2    R_1_86_81_3    R_1_86_82_1
    R_1_86_82_2    R_1_86_82_3    R_1_86_83_1    R_1_86_83_2    R_1_86_83_3    R_1_86_84_1    R_1_86_84_2    R_1_86_84_3
    R_1_86_85_1    R_1_86_85_2    R_1_86_85_3    R_1_86_86_1    R_1_86_86_2    R_1_86_86_3    R_1_86_87_1    R_1_86_87_2
    R_1_86_87_3    R_1_86_88_1    R_1_86_88_2    R_1_86_88_3    R_1_86_89_1    R_1_86_89_2    R_1_86_89_3     R_1_86_8_1
     R_1_86_8_2     R_1_86_8_3    R_1_86_90_1    R_1_86_90_2    R_1_86_90_3    R_1_86_91_1    R_1_86_91_2    R_1_86_91_3
    R_1_86_92_1    R_1_86_92_2    R_1_86_92_3    R_1_86_93_1    R_1_86_93_2    R_1_86_93_3    R_1_86_94_1    R_1_86_94_2
    R_1_86_94_3    R_1_86_95_1    R_1_86_95_2    R_1_86_95_3    R_1_86_96_1    R_1_86_96_2    R_1_86_96_3    R_1_86_97_1
    R_1_86_97_2    R_1_86_97_3    R_1_86_98_1    R_1_86_98_2    R_1_86_98_3    R_1_86_99_2    R_1_86_99_3     R_1_86_9_1
     R_1_86_9_2     R_1_86_9_3     R_1_87_0_1     R_1_87_0_2     R_1_87_0_3    R_1_87_10_1    R_1_87_10_2    R_1_87_10_3
    R_1_87_11_1    R_1_87_11_2    R_1_87_11_3    R_1_87_12_1    R_1_87_12_2    R_1_87_12_3    R_1_87_13_1    R_1_87_13_2
    R_1_87_13_3    R_1_87_14_1    R_1_87_14_2    R_1_87_14_3    R_1_87_15_1    R_1_87_15_2    R_1_87_15_3    R_1_87_16_1
    R_1_87_16_2    R_1_87_16_3    R_1_87_17_1    R_1_87_17_2    R_1_87_17_3    R_1_87_18_1    R_1_87_18_2    R_1_87_18_3
    R_1_87_19_1    R_1_87_19_2    R_1_87_19_3     R_1_87_1_1     R_1_87_1_2     R_1_87_1_3    R_1_87_20_1    R_1_87_20_2
    R_1_87_20_3    R_1_87_21_1    R_1_87_21_2    R_1_87_21_3    R_1_87_22_1    R_1_87_22_2    R_1_87_22_3    R_1_87_23_1
    R_1_87_23_2    R_1_87_23_3    R_1_87_24_1    R_1_87_24_2    R_1_87_24_3    R_1_87_25_1    R_1_87_25_2    R_1_87_25_3
    R_1_87_26_1    R_1_87_26_2    R_1_87_26_3    R_1_87_27_1    R_1_87_27_2    R_1_87_27_3    R_1_87_28_1    R_1_87_28_2
    R_1_87_28_3    R_1_87_29_1    R_1_87_29_2    R_1_87_29_3     R_1_87_2_1     R_1_87_2_2     R_1_87_2_3    R_1_87_30_1
    R_1_87_30_2    R_1_87_30_3    R_1_87_31_1    R_1_87_31_2    R_1_87_31_3    R_1_87_32_1    R_1_87_32_2    R_1_87_32_3
    R_1_87_33_1    R_1_87_33_2    R_1_87_33_3    R_1_87_34_1    R_1_87_34_2    R_1_87_34_3    R_1_87_35_1    R_1_87_35_2
    R_1_87_35_3    R_1_87_36_1    R_1_87_36_2    R_1_87_36_3    R_1_87_37_1    R_1_87_37_2    R_1_87_37_3    R_1_87_38_1
    R_1_87_38_2    R_1_87_38_3    R_1_87_39_1    R_1_87_39_2    R_1_87_39_3     R_1_87_3_1     R_1_87_3_2     R_1_87_3_3
    R_1_87_40_1    R_1_87_40_2    R_1_87_40_3    R_1_87_41_1    R_1_87_41_2    R_1_87_41_3    R_1_87_42_1    R_1_87_42_2
    R_1_87_42_3    R_1_87_43_1    R_1_87_43_2    R_1_87_43_3    R_1_87_44_1    R_1_87_44_2    R_1_87_44_3    R_1_87_45_1
    R_1_87_45_2    R_1_87_45_3    R_1_87_46_1    R_1_87_46_2    R_1_87_46_3    R_1_87_47_1    R_1_87_47_2    R_1_87_47_3
    R_1_87_48_1    R_1_87_48_2    R_1_87_48_3    R_1_87_49_1    R_1_87_49_2    R_1_87_49_3     R_1_87_4_1     R_1_87_4_2
     R_1_87_4_3    R_1_87_50_1    R_1_87_50_2    R_1_87_50_3    R_1_87_51_1    R_1_87_51_2    R_1_87_51_3    R_1_87_52_1
    R_1_87_52_2    R_1_87_52_3    R_1_87_53_1    R_1_87_53_2    R_1_87_53_3    R_1_87_54_1    R_1_87_54_2    R_1_87_54_3
    R_1_87_55_1    R_1_87_55_2    R_1_87_55_3    R_1_87_56_1    R_1_87_56_2    R_1_87_56_3    R_1_87_57_1    R_1_87_57_2
    R_1_87_57_3    R_1_87_58_1    R_1_87_58_2    R_1_87_58_3    R_1_87_59_1    R_1_87_59_2    R_1_87_59_3     R_1_87_5_1
     R_1_87_5_2     R_1_87_5_3    R_1_87_60_1    R_1_87_60_2    R_1_87_60_3    R_1_87_61_1    R_1_87_61_2    R_1_87_61_3
    R_1_87_62_1    R_1_87_62_2    R_1_87_62_3    R_1_87_63_1    R_1_87_63_2    R_1_87_63_3    R_1_87_64_1    R_1_87_64_2
    R_1_87_64_3    R_1_87_65_1    R_1_87_65_2    R_1_87_65_3    R_1_87_66_1    R_1_87_66_2    R_1_87_66_3    R_1_87_67_1
    R_1_87_67_2    R_1_87_67_3    R_1_87_68_1    R_1_87_68_2    R_1_87_68_3    R_1_87_69_1    R_1_87_69_2    R_1_87_69_3
     R_1_87_6_1     R_1_87_6_2     R_1_87_6_3    R_1_87_70_1    R_1_87_70_2    R_1_87_70_3    R_1_87_71_1    R_1_87_71_2
    R_1_87_71_3    R_1_87_72_1    R_1_87_72_2    R_1_87_72_3    R_1_87_73_1    R_1_87_73_2    R_1_87_73_3    R_1_87_74_1
    R_1_87_74_2    R_1_87_74_3    R_1_87_75_1    R_1_87_75_2    R_1_87_75_3    R_1_87_76_1    R_1_87_76_2    R_1_87_76_3
    R_1_87_77_1    R_1_87_77_2    R_1_87_77_3    R_1_87_78_1    R_1_87_78_2    R_1_87_78_3    R_1_87_79_1    R_1_87_79_2
    R_1_87_79_3     R_1_87_7_1     R_1_87_7_2     R_1_87_7_3    R_1_87_80_1    R_1_87_80_2    R_1_87_80_3    R_1_87_81_1
    R_1_87_81_2    R_1_87_81_3    R_1_87_82_1    R_1_87_82_2    R_1_87_82_3    R_1_87_83_1    R_1_87_83_2    R_1_87_83_3
    R_1_87_84_1    R_1_87_84_2    R_1_87_84_3    R_1_87_85_1    R_1_87_85_2    R_1_87_85_3    R_1_87_86_1    R_1_87_86_2
    R_1_87_86_3    R_1_87_87_1    R_1_87_87_2    R_1_87_87_3    R_1_87_88_1    R_1_87_88_2    R_1_87_88_3    R_1_87_89_1
    R_1_87_89_2    R_1_87_89_3     R_1_87_8_1     R_1_87_8_2     R_1_87_8_3    R_1_87_90_1    R_1_87_90_2    R_1_87_90_3
    R_1_87_91_1    R_1_87_91_2    R_1_87_91_3    R_1_87_92_1    R_1_87_92_2    R_1_87_92_3    R_1_87_93_1    R_1_87_93_2
    R_1_87_93_3    R_1_87_94_1    R_1_87_94_2    R_1_87_94_3    R_1_87_95_1    R_1_87_95_2    R_1_87_95_3    R_1_87_96_1
    R_1_87_96_2    R_1_87_96_3    R_1_87_97_1    R_1_87_97_2    R_1_87_97_3    R_1_87_98_1    R_1_87_98_2    R_1_87_98_3
    R_1_87_99_2    R_1_87_99_3     R_1_87_9_1     R_1_87_9_2     R_1_87_9_3     R_1_88_0_1     R_1_88_0_2     R_1_88_0_3
    R_1_88_10_1    R_1_88_10_2    R_1_88_10_3    R_1_88_11_1    R_1_88_11_2    R_1_88_11_3    R_1_88_12_1    R_1_88_12_2
    R_1_88_12_3    R_1_88_13_1    R_1_88_13_2    R_1_88_13_3    R_1_88_14_1    R_1_88_14_2    R_1_88_14_3    R_1_88_15_1
    R_1_88_15_2    R_1_88_15_3    R_1_88_16_1    R_1_88_16_2    R_1_88_16_3    R_1_88_17_1    R_1_88_17_2    R_1_88_17_3
    R_1_88_18_1    R_1_88_18_2    R_1_88_18_3    R_1_88_19_1    R_1_88_19_2    R_1_88_19_3     R_1_88_1_1     R_1_88_1_2
     R_1_88_1_3    R_1_88_20_1    R_1_88_20_2    R_1_88_20_3    R_1_88_21_1    R_1_88_21_2    R_1_88_21_3    R_1_88_22_1
    R_1_88_22_2    R_1_88_22_3    R_1_88_23_1    R_1_88_23_2    R_1_88_23_3    R_1_88_24_1    R_1_88_24_2    R_1_88_24_3
    R_1_88_25_1    R_1_88_25_2    R_1_88_25_3    R_1_88_26_1    R_1_88_26_2    R_1_88_26_3    R_1_88_27_1    R_1_88_27_2
    R_1_88_27_3    R_1_88_28_1    R_1_88_28_2    R_1_88_28_3    R_1_88_29_1    R_1_88_29_2    R_1_88_29_3     R_1_88_2_1
     R_1_88_2_2     R_1_88_2_3    R_1_88_30_1    R_1_88_30_2    R_1_88_30_3    R_1_88_31_1    R_1_88_31_2    R_1_88_31_3
    R_1_88_32_1    R_1_88_32_2    R_1_88_32_3    R_1_88_33_1    R_1_88_33_2    R_1_88_33_3    R_1_88_34_1    R_1_88_34_2
    R_1_88_34_3    R_1_88_35_1    R_1_88_35_2    R_1_88_35_3    R_1_88_36_1    R_1_88_36_2    R_1_88_36_3    R_1_88_37_1
    R_1_88_37_2    R_1_88_37_3    R_1_88_38_1    R_1_88_38_2    R_1_88_38_3    R_1_88_39_1    R_1_88_39_2    R_1_88_39_3
     R_1_88_3_1     R_1_88_3_2     R_1_88_3_3    R_1_88_40_1    R_1_88_40_2    R_1_88_40_3    R_1_88_41_1    R_1_88_41_2
    R_1_88_41_3    R_1_88_42_1    R_1_88_42_2    R_1_88_42_3    R_1_88_43_1    R_1_88_43_2    R_1_88_43_3    R_1_88_44_1
    R_1_88_44_2    R_1_88_44_3    R_1_88_45_1    R_1_88_45_2    R_1_88_45_3    R_1_88_46_1    R_1_88_46_2    R_1_88_46_3
    R_1_88_47_1    R_1_88_47_2    R_1_88_47_3    R_1_88_48_1    R_1_88_48_2    R_1_88_48_3    R_1_88_49_1    R_1_88_49_2
    R_1_88_49_3     R_1_88_4_1     R_1_88_4_2     R_1_88_4_3    R_1_88_50_1    R_1_88_50_2    R_1_88_50_3    R_1_88_51_1
    R_1_88_51_2    R_1_88_51_3    R_1_88_52_1    R_1_88_52_2    R_1_88_52_3    R_1_88_53_1    R_1_88_53_2    R_1_88_53_3
    R_1_88_54_1    R_1_88_54_2    R_1_88_54_3    R_1_88_55_1    R_1_88_55_2    R_1_88_55_3    R_1_88_56_1    R_1_88_56_2
    R_1_88_56_3    R_1_88_57_1    R_1_88_57_2    R_1_88_57_3    R_1_88_58_1    R_1_88_58_2    R_1_88_58_3    R_1_88_59_1
    R_1_88_59_2    R_1_88_59_3     R_1_88_5_1     R_1_88_5_2     R_1_88_5_3    R_1_88_60_1    R_1_88_60_2    R_1_88_60_3
    R_1_88_61_1    R_1_88_61_2    R_1_88_61_3    R_1_88_62_1    R_1_88_62_2    R_1_88_62_3    R_1_88_63_1    R_1_88_63_2
    R_1_88_63_3    R_1_88_64_1    R_1_88_64_2    R_1_88_64_3    R_1_88_65_1    R_1_88_65_2    R_1_88_65_3    R_1_88_66_1
    R_1_88_66_2    R_1_88_66_3    R_1_88_67_1    R_1_88_67_2    R_1_88_67_3    R_1_88_68_1    R_1_88_68_2    R_1_88_68_3
    R_1_88_69_1    R_1_88_69_2    R_1_88_69_3     R_1_88_6_1     R_1_88_6_2     R_1_88_6_3    R_1_88_70_1    R_1_88_70_2
    R_1_88_70_3    R_1_88_71_1    R_1_88_71_2    R_1_88_71_3    R_1_88_72_1    R_1_88_72_2    R_1_88_72_3    R_1_88_73_1
    R_1_88_73_2    R_1_88_73_3    R_1_88_74_1    R_1_88_74_2    R_1_88_74_3    R_1_88_75_1    R_1_88_75_2    R_1_88_75_3
    R_1_88_76_1    R_1_88_76_2    R_1_88_76_3    R_1_88_77_1    R_1_88_77_2    R_1_88_77_3    R_1_88_78_1    R_1_88_78_2
    R_1_88_78_3    R_1_88_79_1    R_1_88_79_2    R_1_88_79_3     R_1_88_7_1     R_1_88_7_2     R_1_88_7_3    R_1_88_80_1
    R_1_88_80_2    R_1_88_80_3    R_1_88_81_1    R_1_88_81_2    R_1_88_81_3    R_1_88_82_1    R_1_88_82_2    R_1_88_82_3
    R_1_88_83_1    R_1_88_83_2    R_1_88_83_3    R_1_88_84_1    R_1_88_84_2    R_1_88_84_3    R_1_88_85_1    R_1_88_85_2
    R_1_88_85_3    R_1_88_86_1    R_1_88_86_2    R_1_88_86_3    R_1_88_87_1    R_1_88_87_2    R_1_88_87_3    R_1_88_88_1
    R_1_88_88_2    R_1_88_88_3    R_1_88_89_1    R_1_88_89_2    R_1_88_89_3     R_1_88_8_1     R_1_88_8_2     R_1_88_8_3
    R_1_88_90_1    R_1_88_90_2    R_1_88_90_3    R_1_88_91_1    R_1_88_91_2    R_1_88_91_3    R_1_88_92_1    R_1_88_92_2
    R_1_88_92_3    R_1_88_93_1    R_1_88_93_2    R_1_88_93_3    R_1_88_94_1    R_1_88_94_2    R_1_88_94_3    R_1_88_95_1
    R_1_88_95_2    R_1_88_95_3    R_1_88_96_1    R_1_88_96_2    R_1_88_96_3    R_1_88_97_1    R_1_88_97_2    R_1_88_97_3
    R_1_88_98_1    R_1_88_98_2    R_1_88_98_3    R_1_88_99_2    R_1_88_99_3     R_1_88_9_1     R_1_88_9_2     R_1_88_9_3
     R_1_89_0_1     R_1_89_0_2     R_1_89_0_3    R_1_89_10_1    R_1_89_10_2    R_1_89_10_3    R_1_89_11_1    R_1_89_11_2
    R_1_89_11_3    R_1_89_12_1    R_1_89_12_2    R_1_89_12_3    R_1_89_13_1    R_1_89_13_2    R_1_89_13_3    R_1_89_14_1
    R_1_89_14_2    R_1_89_14_3    R_1_89_15_1    R_1_89_15_2    R_1_89_15_3    R_1_89_16_1    R_1_89_16_2    R_1_89_16_3
    R_1_89_17_1    R_1_89_17_2    R_1_89_17_3    R_1_89_18_1    R_1_89_18_2    R_1_89_18_3    R_1_89_19_1    R_1_89_19_2
    R_1_89_19_3     R_1_89_1_1     R_1_89_1_2     R_1_89_1_3    R_1_89_20_1    R_1_89_20_2    R_1_89_20_3    R_1_89_21_1
    R_1_89_21_2    R_1_89_21_3    R_1_89_22_1    R_1_89_22_2    R_1_89_22_3    R_1_89_23_1    R_1_89_23_2    R_1_89_23_3
    R_1_89_24_1    R_1_89_24_2    R_1_89_24_3    R_1_89_25_1    R_1_89_25_2    R_1_89_25_3    R_1_89_26_1    R_1_89_26_2
    R_1_89_26_3    R_1_89_27_1    R_1_89_27_2    R_1_89_27_3    R_1_89_28_1    R_1_89_28_2    R_1_89_28_3    R_1_89_29_1
    R_1_89_29_2    R_1_89_29_3     R_1_89_2_1     R_1_89_2_2     R_1_89_2_3    R_1_89_30_1    R_1_89_30_2    R_1_89_30_3
    R_1_89_31_1    R_1_89_31_2    R_1_89_31_3    R_1_89_32_1    R_1_89_32_2    R_1_89_32_3    R_1_89_33_1    R_1_89_33_2
    R_1_89_33_3    R_1_89_34_1    R_1_89_34_2    R_1_89_34_3    R_1_89_35_1    R_1_89_35_2    R_1_89_35_3    R_1_89_36_1
    R_1_89_36_2    R_1_89_36_3    R_1_89_37_1    R_1_89_37_2    R_1_89_37_3    R_1_89_38_1    R_1_89_38_2    R_1_89_38_3
    R_1_89_39_1    R_1_89_39_2    R_1_89_39_3     R_1_89_3_1     R_1_89_3_2     R_1_89_3_3    R_1_89_40_1    R_1_89_40_2
    R_1_89_40_3    R_1_89_41_1    R_1_89_41_2    R_1_89_41_3    R_1_89_42_1    R_1_89_42_2    R_1_89_42_3    R_1_89_43_1
    R_1_89_43_2    R_1_89_43_3    R_1_89_44_1    R_1_89_44_2    R_1_89_44_3    R_1_89_45_1    R_1_89_45_2    R_1_89_45_3
    R_1_89_46_1    R_1_89_46_2    R_1_89_46_3    R_1_89_47_1    R_1_89_47_2    R_1_89_47_3    R_1_89_48_1    R_1_89_48_2
    R_1_89_48_3    R_1_89_49_1    R_1_89_49_2    R_1_89_49_3     R_1_89_4_1     R_1_89_4_2     R_1_89_4_3    R_1_89_50_1
    R_1_89_50_2    R_1_89_50_3    R_1_89_51_1    R_1_89_51_2    R_1_89_51_3    R_1_89_52_1    R_1_89_52_2    R_1_89_52_3
    R_1_89_53_1    R_1_89_53_2    R_1_89_53_3    R_1_89_54_1    R_1_89_54_2    R_1_89_54_3    R_1_89_55_1    R_1_89_55_2
    R_1_89_55_3    R_1_89_56_1    R_1_89_56_2    R_1_89_56_3    R_1_89_57_1    R_1_89_57_2    R_1_89_57_3    R_1_89_58_1
    R_1_89_58_2    R_1_89_58_3    R_1_89_59_1    R_1_89_59_2    R_1_89_59_3     R_1_89_5_1     R_1_89_5_2     R_1_89_5_3
    R_1_89_60_1    R_1_89_60_2    R_1_89_60_3    R_1_89_61_1    R_1_89_61_2    R_1_89_61_3    R_1_89_62_1    R_1_89_62_2
    R_1_89_62_3    R_1_89_63_1    R_1_89_63_2    R_1_89_63_3    R_1_89_64_1    R_1_89_64_2    R_1_89_64_3    R_1_89_65_1
    R_1_89_65_2    R_1_89_65_3    R_1_89_66_1    R_1_89_66_2    R_1_89_66_3    R_1_89_67_1    R_1_89_67_2    R_1_89_67_3
    R_1_89_68_1    R_1_89_68_2    R_1_89_68_3    R_1_89_69_1    R_1_89_69_2    R_1_89_69_3     R_1_89_6_1     R_1_89_6_2
     R_1_89_6_3    R_1_89_70_1    R_1_89_70_2    R_1_89_70_3    R_1_89_71_1    R_1_89_71_2    R_1_89_71_3    R_1_89_72_1
    R_1_89_72_2    R_1_89_72_3    R_1_89_73_1    R_1_89_73_2    R_1_89_73_3    R_1_89_74_1    R_1_89_74_2    R_1_89_74_3
    R_1_89_75_1    R_1_89_75_2    R_1_89_75_3    R_1_89_76_1    R_1_89_76_2    R_1_89_76_3    R_1_89_77_1    R_1_89_77_2
    R_1_89_77_3    R_1_89_78_1    R_1_89_78_2    R_1_89_78_3    R_1_89_79_1    R_1_89_79_2    R_1_89_79_3     R_1_89_7_1
     R_1_89_7_2     R_1_89_7_3    R_1_89_80_1    R_1_89_80_2    R_1_89_80_3    R_1_89_81_1    R_1_89_81_2    R_1_89_81_3
    R_1_89_82_1    R_1_89_82_2    R_1_89_82_3    R_1_89_83_1    R_1_89_83_2    R_1_89_83_3    R_1_89_84_1    R_1_89_84_2
    R_1_89_84_3    R_1_89_85_1    R_1_89_85_2    R_1_89_85_3    R_1_89_86_1    R_1_89_86_2    R_1_89_86_3    R_1_89_87_1
    R_1_89_87_2    R_1_89_87_3    R_1_89_88_1    R_1_89_88_2    R_1_89_88_3    R_1_89_89_1    R_1_89_89_2    R_1_89_89_3
     R_1_89_8_1     R_1_89_8_2     R_1_89_8_3    R_1_89_90_1    R_1_89_90_2    R_1_89_90_3    R_1_89_91_1    R_1_89_91_2
    R_1_89_91_3    R_1_89_92_1    R_1_89_92_2    R_1_89_92_3    R_1_89_93_1    R_1_89_93_2    R_1_89_93_3    R_1_89_94_1
    R_1_89_94_2    R_1_89_94_3    R_1_89_95_1    R_1_89_95_2    R_1_89_95_3    R_1_89_96_1    R_1_89_96_2    R_1_89_96_3
    R_1_89_97_1    R_1_89_97_2    R_1_89_97_3    R_1_89_98_1    R_1_89_98_2    R_1_89_98_3    R_1_89_99_2    R_1_89_99_3
     R_1_89_9_1     R_1_89_9_2     R_1_89_9_3     R_1_90_0_1     R_1_90_0_2     R_1_90_0_3    R_1_90_10_1    R_1_90_10_2
    R_1_90_10_3    R_1_90_11_1    R_1_90_11_2    R_1_90_11_3    R_1_90_12_1    R_1_90_12_2    R_1_90_12_3    R_1_90_13_1
    R_1_90_13_2    R_1_90_13_3    R_1_90_14_1    R_1_90_14_2    R_1_90_14_3    R_1_90_15_1    R_1_90_15_2    R_1_90_15_3
    R_1_90_16_1    R_1_90_16_2    R_1_90_16_3    R_1_90_17_1    R_1_90_17_2    R_1_90_17_3    R_1_90_18_1    R_1_90_18_2
    R_1_90_18_3    R_1_90_19_1    R_1_90_19_2    R_1_90_19_3     R_1_90_1_1     R_1_90_1_2     R_1_90_1_3    R_1_90_20_1
    R_1_90_20_2    R_1_90_20_3    R_1_90_21_1    R_1_90_21_2    R_1_90_21_3    R_1_90_22_1    R_1_90_22_2    R_1_90_22_3
    R_1_90_23_1    R_1_90_23_2    R_1_90_23_3    R_1_90_24_1    R_1_90_24_2    R_1_90_24_3    R_1_90_25_1    R_1_90_25_2
    R_1_90_25_3    R_1_90_26_1    R_1_90_26_2    R_1_90_26_3    R_1_90_27_1    R_1_90_27_2    R_1_90_27_3    R_1_90_28_1
    R_1_90_28_2    R_1_90_28_3    R_1_90_29_1    R_1_90_29_2    R_1_90_29_3     R_1_90_2_1     R_1_90_2_2     R_1_90_2_3
    R_1_90_30_1    R_1_90_30_2    R_1_90_30_3    R_1_90_31_1    R_1_90_31_2    R_1_90_31_3    R_1_90_32_1    R_1_90_32_2
    R_1_90_32_3    R_1_90_33_1    R_1_90_33_2    R_1_90_33_3    R_1_90_34_1    R_1_90_34_2    R_1_90_34_3    R_1_90_35_1
    R_1_90_35_2    R_1_90_35_3    R_1_90_36_1    R_1_90_36_2    R_1_90_36_3    R_1_90_37_1    R_1_90_37_2    R_1_90_37_3
    R_1_90_38_1    R_1_90_38_2    R_1_90_38_3    R_1_90_39_1    R_1_90_39_2    R_1_90_39_3     R_1_90_3_1     R_1_90_3_2
     R_1_90_3_3    R_1_90_40_1    R_1_90_40_2    R_1_90_40_3    R_1_90_41_1    R_1_90_41_2    R_1_90_41_3    R_1_90_42_1
    R_1_90_42_2    R_1_90_42_3    R_1_90_43_1    R_1_90_43_2    R_1_90_43_3    R_1_90_44_1    R_1_90_44_2    R_1_90_44_3
    R_1_90_45_1    R_1_90_45_2    R_1_90_45_3    R_1_90_46_1    R_1_90_46_2    R_1_90_46_3    R_1_90_47_1    R_1_90_47_2
    R_1_90_47_3    R_1_90_48_1    R_1_90_48_2    R_1_90_48_3    R_1_90_49_1    R_1_90_49_2    R_1_90_49_3     R_1_90_4_1
     R_1_90_4_2     R_1_90_4_3    R_1_90_50_1    R_1_90_50_2    R_1_90_50_3    R_1_90_51_1    R_1_90_51_2    R_1_90_51_3
    R_1_90_52_1    R_1_90_52_2    R_1_90_52_3    R_1_90_53_1    R_1_90_53_2    R_1_90_53_3    R_1_90_54_1    R_1_90_54_2
    R_1_90_54_3    R_1_90_55_1    R_1_90_55_2    R_1_90_55_3    R_1_90_56_1    R_1_90_56_2    R_1_90_56_3    R_1_90_57_1
    R_1_90_57_2    R_1_90_57_3    R_1_90_58_1    R_1_90_58_2    R_1_90_58_3    R_1_90_59_1    R_1_90_59_2    R_1_90_59_3
     R_1_90_5_1     R_1_90_5_2     R_1_90_5_3    R_1_90_60_1    R_1_90_60_2    R_1_90_60_3    R_1_90_61_1    R_1_90_61_2
    R_1_90_61_3    R_1_90_62_1    R_1_90_62_2    R_1_90_62_3    R_1_90_63_1    R_1_90_63_2    R_1_90_63_3    R_1_90_64_1
    R_1_90_64_2    R_1_90_64_3    R_1_90_65_1    R_1_90_65_2    R_1_90_65_3    R_1_90_66_1    R_1_90_66_2    R_1_90_66_3
    R_1_90_67_1    R_1_90_67_2    R_1_90_67_3    R_1_90_68_1    R_1_90_68_2    R_1_90_68_3    R_1_90_69_1    R_1_90_69_2
    R_1_90_69_3     R_1_90_6_1     R_1_90_6_2     R_1_90_6_3    R_1_90_70_1    R_1_90_70_2    R_1_90_70_3    R_1_90_71_1
    R_1_90_71_2    R_1_90_71_3    R_1_90_72_1    R_1_90_72_2    R_1_90_72_3    R_1_90_73_1    R_1_90_73_2    R_1_90_73_3
    R_1_90_74_1    R_1_90_74_2    R_1_90_74_3    R_1_90_75_1    R_1_90_75_2    R_1_90_75_3    R_1_90_76_1    R_1_90_76_2
    R_1_90_76_3    R_1_90_77_1    R_1_90_77_2    R_1_90_77_3    R_1_90_78_1    R_1_90_78_2    R_1_90_78_3    R_1_90_79_1
    R_1_90_79_2    R_1_90_79_3     R_1_90_7_1     R_1_90_7_2     R_1_90_7_3    R_1_90_80_1    R_1_90_80_2    R_1_90_80_3
    R_1_90_81_1    R_1_90_81_2    R_1_90_81_3    R_1_90_82_1    R_1_90_82_2    R_1_90_82_3    R_1_90_83_1    R_1_90_83_2
    R_1_90_83_3    R_1_90_84_1    R_1_90_84_2    R_1_90_84_3    R_1_90_85_1    R_1_90_85_2    R_1_90_85_3    R_1_90_86_1
    R_1_90_86_2    R_1_90_86_3    R_1_90_87_1    R_1_90_87_2    R_1_90_87_3    R_1_90_88_1    R_1_90_88_2    R_1_90_88_3
    R_1_90_89_1    R_1_90_89_2    R_1_90_89_3     R_1_90_8_1     R_1_90_8_2     R_1_90_8_3    R_1_90_90_1    R_1_90_90_2
    R_1_90_90_3    R_1_90_91_1    R_1_90_91_2    R_1_90_91_3    R_1_90_92_1    R_1_90_92_2    R_1_90_92_3    R_1_90_93_1
    R_1_90_93_2    R_1_90_93_3    R_1_90_94_1    R_1_90_94_2    R_1_90_94_3    R_1_90_95_1    R_1_90_95_2    R_1_90_95_3
    R_1_90_96_1    R_1_90_96_2    R_1_90_96_3    R_1_90_97_1    R_1_90_97_2    R_1_90_97_3    R_1_90_98_1    R_1_90_98_2
    R_1_90_98_3    R_1_90_99_2    R_1_90_99_3     R_1_90_9_1     R_1_90_9_2     R_1_90_9_3     R_1_91_0_1     R_1_91_0_2
     R_1_91_0_3    R_1_91_10_1    R_1_91_10_2    R_1_91_10_3    R_1_91_11_1    R_1_91_11_2    R_1_91_11_3    R_1_91_12_1
    R_1_91_12_2    R_1_91_12_3    R_1_91_13_1    R_1_91_13_2    R_1_91_13_3    R_1_91_14_1    R_1_91_14_2    R_1_91_14_3
    R_1_91_15_1    R_1_91_15_2    R_1_91_15_3    R_1_91_16_1    R_1_91_16_2    R_1_91_16_3    R_1_91_17_1    R_1_91_17_2
    R_1_91_17_3    R_1_91_18_1    R_1_91_18_2    R_1_91_18_3    R_1_91_19_1    R_1_91_19_2    R_1_91_19_3     R_1_91_1_1
     R_1_91_1_2     R_1_91_1_3    R_1_91_20_1    R_1_91_20_2    R_1_91_20_3    R_1_91_21_1    R_1_91_21_2    R_1_91_21_3
    R_1_91_22_1    R_1_91_22_2    R_1_91_22_3    R_1_91_23_1    R_1_91_23_2    R_1_91_23_3    R_1_91_24_1    R_1_91_24_2
    R_1_91_24_3    R_1_91_25_1    R_1_91_25_2    R_1_91_25_3    R_1_91_26_1    R_1_91_26_2    R_1_91_26_3    R_1_91_27_1
    R_1_91_27_2    R_1_91_27_3    R_1_91_28_1    R_1_91_28_2    R_1_91_28_3    R_1_91_29_1    R_1_91_29_2    R_1_91_29_3
     R_1_91_2_1     R_1_91_2_2     R_1_91_2_3    R_1_91_30_1    R_1_91_30_2    R_1_91_30_3    R_1_91_31_1    R_1_91_31_2
    R_1_91_31_3    R_1_91_32_1    R_1_91_32_2    R_1_91_32_3    R_1_91_33_1    R_1_91_33_2    R_1_91_33_3    R_1_91_34_1
    R_1_91_34_2    R_1_91_34_3    R_1_91_35_1    R_1_91_35_2    R_1_91_35_3    R_1_91_36_1    R_1_91_36_2    R_1_91_36_3
    R_1_91_37_1    R_1_91_37_2    R_1_91_37_3    R_1_91_38_1    R_1_91_38_2    R_1_91_38_3    R_1_91_39_1    R_1_91_39_2
    R_1_91_39_3     R_1_91_3_1     R_1_91_3_2     R_1_91_3_3    R_1_91_40_1    R_1_91_40_2    R_1_91_40_3    R_1_91_41_1
    R_1_91_41_2    R_1_91_41_3    R_1_91_42_1    R_1_91_42_2    R_1_91_42_3    R_1_91_43_1    R_1_91_43_2    R_1_91_43_3
    R_1_91_44_1    R_1_91_44_2    R_1_91_44_3    R_1_91_45_1    R_1_91_45_2    R_1_91_45_3    R_1_91_46_1    R_1_91_46_2
    R_1_91_46_3    R_1_91_47_1    R_1_91_47_2    R_1_91_47_3    R_1_91_48_1    R_1_91_48_2    R_1_91_48_3    R_1_91_49_1
    R_1_91_49_2    R_1_91_49_3     R_1_91_4_1     R_1_91_4_2     R_1_91_4_3    R_1_91_50_1    R_1_91_50_2    R_1_91_50_3
    R_1_91_51_1    R_1_91_51_2    R_1_91_51_3    R_1_91_52_1    R_1_91_52_2    R_1_91_52_3    R_1_91_53_1    R_1_91_53_2
    R_1_91_53_3    R_1_91_54_1    R_1_91_54_2    R_1_91_54_3    R_1_91_55_1    R_1_91_55_2    R_1_91_55_3    R_1_91_56_1
    R_1_91_56_2    R_1_91_56_3    R_1_91_57_1    R_1_91_57_2    R_1_91_57_3    R_1_91_58_1    R_1_91_58_2    R_1_91_58_3
    R_1_91_59_1    R_1_91_59_2    R_1_91_59_3     R_1_91_5_1     R_1_91_5_2     R_1_91_5_3    R_1_91_60_1    R_1_91_60_2
    R_1_91_60_3    R_1_91_61_1    R_1_91_61_2    R_1_91_61_3    R_1_91_62_1    R_1_91_62_2    R_1_91_62_3    R_1_91_63_1
    R_1_91_63_2    R_1_91_63_3    R_1_91_64_1    R_1_91_64_2    R_1_91_64_3    R_1_91_65_1    R_1_91_65_2    R_1_91_65_3
    R_1_91_66_1    R_1_91_66_2    R_1_91_66_3    R_1_91_67_1    R_1_91_67_2    R_1_91_67_3    R_1_91_68_1    R_1_91_68_2
    R_1_91_68_3    R_1_91_69_1    R_1_91_69_2    R_1_91_69_3     R_1_91_6_1     R_1_91_6_2     R_1_91_6_3    R_1_91_70_1
    R_1_91_70_2    R_1_91_70_3    R_1_91_71_1    R_1_91_71_2    R_1_91_71_3    R_1_91_72_1    R_1_91_72_2    R_1_91_72_3
    R_1_91_73_1    R_1_91_73_2    R_1_91_73_3    R_1_91_74_1    R_1_91_74_2    R_1_91_74_3    R_1_91_75_1    R_1_91_75_2
    R_1_91_75_3    R_1_91_76_1    R_1_91_76_2    R_1_91_76_3    R_1_91_77_1    R_1_91_77_2    R_1_91_77_3    R_1_91_78_1
    R_1_91_78_2    R_1_91_78_3    R_1_91_79_1    R_1_91_79_2    R_1_91_79_3     R_1_91_7_1     R_1_91_7_2     R_1_91_7_3
    R_1_91_80_1    R_1_91_80_2    R_1_91_80_3    R_1_91_81_1    R_1_91_81_2    R_1_91_81_3    R_1_91_82_1    R_1_91_82_2
    R_1_91_82_3    R_1_91_83_1    R_1_91_83_2    R_1_91_83_3    R_1_91_84_1    R_1_91_84_2    R_1_91_84_3    R_1_91_85_1
    R_1_91_85_2    R_1_91_85_3    R_1_91_86_1    R_1_91_86_2    R_1_91_86_3    R_1_91_87_1    R_1_91_87_2    R_1_91_87_3
    R_1_91_88_1    R_1_91_88_2    R_1_91_88_3    R_1_91_89_1    R_1_91_89_2    R_1_91_89_3     R_1_91_8_1     R_1_91_8_2
     R_1_91_8_3    R_1_91_90_1    R_1_91_90_2    R_1_91_90_3    R_1_91_91_1    R_1_91_91_2    R_1_91_91_3    R_1_91_92_1
    R_1_91_92_2    R_1_91_92_3    R_1_91_93_1    R_1_91_93_2    R_1_91_93_3    R_1_91_94_1    R_1_91_94_2    R_1_91_94_3
    R_1_91_95_1    R_1_91_95_2    R_1_91_95_3    R_1_91_96_1    R_1_91_96_2    R_1_91_96_3    R_1_91_97_1    R_1_91_97_2
    R_1_91_97_3    R_1_91_98_1    R_1_91_98_2    R_1_91_98_3    R_1_91_99_2    R_1_91_99_3     R_1_91_9_1     R_1_91_9_2
     R_1_91_9_3     R_1_92_0_1     R_1_92_0_2     R_1_92_0_3    R_1_92_10_1    R_1_92_10_2    R_1_92_10_3    R_1_92_11_1
    R_1_92_11_2    R_1_92_11_3    R_1_92_12_1    R_1_92_12_2    R_1_92_12_3    R_1_92_13_1    R_1_92_13_2    R_1_92_13_3
    R_1_92_14_1    R_1_92_14_2    R_1_92_14_3    R_1_92_15_1    R_1_92_15_2    R_1_92_15_3    R_1_92_16_1    R_1_92_16_2
    R_1_92_16_3    R_1_92_17_1    R_1_92_17_2    R_1_92_17_3    R_1_92_18_1    R_1_92_18_2    R_1_92_18_3    R_1_92_19_1
    R_1_92_19_2    R_1_92_19_3     R_1_92_1_1     R_1_92_1_2     R_1_92_1_3    R_1_92_20_1    R_1_92_20_2    R_1_92_20_3
    R_1_92_21_1    R_1_92_21_2    R_1_92_21_3    R_1_92_22_1    R_1_92_22_2    R_1_92_22_3    R_1_92_23_1    R_1_92_23_2
    R_1_92_23_3    R_1_92_24_1    R_1_92_24_2    R_1_92_24_3    R_1_92_25_1    R_1_92_25_2    R_1_92_25_3    R_1_92_26_1
    R_1_92_26_2    R_1_92_26_3    R_1_92_27_1    R_1_92_27_2    R_1_92_27_3    R_1_92_28_1    R_1_92_28_2    R_1_92_28_3
    R_1_92_29_1    R_1_92_29_2    R_1_92_29_3     R_1_92_2_1     R_1_92_2_2     R_1_92_2_3    R_1_92_30_1    R_1_92_30_2
    R_1_92_30_3    R_1_92_31_1    R_1_92_31_2    R_1_92_31_3    R_1_92_32_1    R_1_92_32_2    R_1_92_32_3    R_1_92_33_1
    R_1_92_33_2    R_1_92_33_3    R_1_92_34_1    R_1_92_34_2    R_1_92_34_3    R_1_92_35_1    R_1_92_35_2    R_1_92_35_3
    R_1_92_36_1    R_1_92_36_2    R_1_92_36_3    R_1_92_37_1    R_1_92_37_2    R_1_92_37_3    R_1_92_38_1    R_1_92_38_2
    R_1_92_38_3    R_1_92_39_1    R_1_92_39_2    R_1_92_39_3     R_1_92_3_1     R_1_92_3_2     R_1_92_3_3    R_1_92_40_1
    R_1_92_40_2    R_1_92_40_3    R_1_92_41_1    R_1_92_41_2    R_1_92_41_3    R_1_92_42_1    R_1_92_42_2    R_1_92_42_3
    R_1_92_43_1    R_1_92_43_2    R_1_92_43_3    R_1_92_44_1    R_1_92_44_2    R_1_92_44_3    R_1_92_45_1    R_1_92_45_2
    R_1_92_45_3    R_1_92_46_1    R_1_92_46_2    R_1_92_46_3    R_1_92_47_1    R_1_92_47_2    R_1_92_47_3    R_1_92_48_1
    R_1_92_48_2    R_1_92_48_3    R_1_92_49_1    R_1_92_49_2    R_1_92_49_3     R_1_92_4_1     R_1_92_4_2     R_1_92_4_3
    R_1_92_50_1    R_1_92_50_2    R_1_92_50_3    R_1_92_51_1    R_1_92_51_2    R_1_92_51_3    R_1_92_52_1    R_1_92_52_2
    R_1_92_52_3    R_1_92_53_1    R_1_92_53_2    R_1_92_53_3    R_1_92_54_1    R_1_92_54_2    R_1_92_54_3    R_1_92_55_1
    R_1_92_55_2    R_1_92_55_3    R_1_92_56_1    R_1_92_56_2    R_1_92_56_3    R_1_92_57_1    R_1_92_57_2    R_1_92_57_3
    R_1_92_58_1    R_1_92_58_2    R_1_92_58_3    R_1_92_59_1    R_1_92_59_2    R_1_92_59_3     R_1_92_5_1     R_1_92_5_2
     R_1_92_5_3    R_1_92_60_1    R_1_92_60_2    R_1_92_60_3    R_1_92_61_1    R_1_92_61_2    R_1_92_61_3    R_1_92_62_1
    R_1_92_62_2    R_1_92_62_3    R_1_92_63_1    R_1_92_63_2    R_1_92_63_3    R_1_92_64_1    R_1_92_64_2    R_1_92_64_3
    R_1_92_65_1    R_1_92_65_2    R_1_92_65_3    R_1_92_66_1    R_1_92_66_2    R_1_92_66_3    R_1_92_67_1    R_1_92_67_2
    R_1_92_67_3    R_1_92_68_1    R_1_92_68_2    R_1_92_68_3    R_1_92_69_1    R_1_92_69_2    R_1_92_69_3     R_1_92_6_1
     R_1_92_6_2     R_1_92_6_3    R_1_92_70_1    R_1_92_70_2    R_1_92_70_3    R_1_92_71_1    R_1_92_71_2    R_1_92_71_3
    R_1_92_72_1    R_1_92_72_2    R_1_92_72_3    R_1_92_73_1    R_1_92_73_2    R_1_92_73_3    R_1_92_74_1    R_1_92_74_2
    R_1_92_74_3    R_1_92_75_1    R_1_92_75_2    R_1_92_75_3    R_1_92_76_1    R_1_92_76_2    R_1_92_76_3    R_1_92_77_1
    R_1_92_77_2    R_1_92_77_3    R_1_92_78_1    R_1_92_78_2    R_1_92_78_3    R_1_92_79_1    R_1_92_79_2    R_1_92_79_3
     R_1_92_7_1     R_1_92_7_2     R_1_92_7_3    R_1_92_80_1    R_1_92_80_2    R_1_92_80_3    R_1_92_81_1    R_1_92_81_2
    R_1_92_81_3    R_1_92_82_1    R_1_92_82_2    R_1_92_82_3    R_1_92_83_1    R_1_92_83_2    R_1_92_83_3    R_1_92_84_1
    R_1_92_84_2    R_1_92_84_3    R_1_92_85_1    R_1_92_85_2    R_1_92_85_3    R_1_92_86_1    R_1_92_86_2    R_1_92_86_3
    R_1_92_87_1    R_1_92_87_2    R_1_92_87_3    R_1_92_88_1    R_1_92_88_2    R_1_92_88_3    R_1_92_89_1    R_1_92_89_2
    R_1_92_89_3     R_1_92_8_1     R_1_92_8_2     R_1_92_8_3    R_1_92_90_1    R_1_92_90_2    R_1_92_90_3    R_1_92_91_1
    R_1_92_91_2    R_1_92_91_3    R_1_92_92_1    R_1_92_92_2    R_1_92_92_3    R_1_92_93_1    R_1_92_93_2    R_1_92_93_3
    R_1_92_94_1    R_1_92_94_2    R_1_92_94_3    R_1_92_95_1    R_1_92_95_2    R_1_92_95_3    R_1_92_96_1    R_1_92_96_2
    R_1_92_96_3    R_1_92_97_1    R_1_92_97_2    R_1_92_97_3    R_1_92_98_1    R_1_92_98_2    R_1_92_98_3    R_1_92_99_2
    R_1_92_99_3     R_1_92_9_1     R_1_92_9_2     R_1_92_9_3     R_1_93_0_1     R_1_93_0_2     R_1_93_0_3    R_1_93_10_1
    R_1_93_10_2    R_1_93_10_3    R_1_93_11_1    R_1_93_11_2    R_1_93_11_3    R_1_93_12_1    R_1_93_12_2    R_1_93_12_3
    R_1_93_13_1    R_1_93_13_2    R_1_93_13_3    R_1_93_14_1    R_1_93_14_2    R_1_93_14_3    R_1_93_15_1    R_1_93_15_2
    R_1_93_15_3    R_1_93_16_1    R_1_93_16_2    R_1_93_16_3    R_1_93_17_1    R_1_93_17_2    R_1_93_17_3    R_1_93_18_1
    R_1_93_18_2    R_1_93_18_3    R_1_93_19_1    R_1_93_19_2    R_1_93_19_3     R_1_93_1_1     R_1_93_1_2     R_1_93_1_3
    R_1_93_20_1    R_1_93_20_2    R_1_93_20_3    R_1_93_21_1    R_1_93_21_2    R_1_93_21_3    R_1_93_22_1    R_1_93_22_2
    R_1_93_22_3    R_1_93_23_1    R_1_93_23_2    R_1_93_23_3    R_1_93_24_1    R_1_93_24_2    R_1_93_24_3    R_1_93_25_1
    R_1_93_25_2    R_1_93_25_3    R_1_93_26_1    R_1_93_26_2    R_1_93_26_3    R_1_93_27_1    R_1_93_27_2    R_1_93_27_3
    R_1_93_28_1    R_1_93_28_2    R_1_93_28_3    R_1_93_29_1    R_1_93_29_2    R_1_93_29_3     R_1_93_2_1     R_1_93_2_2
     R_1_93_2_3    R_1_93_30_1    R_1_93_30_2    R_1_93_30_3    R_1_93_31_1    R_1_93_31_2    R_1_93_31_3    R_1_93_32_1
    R_1_93_32_2    R_1_93_32_3    R_1_93_33_1    R_1_93_33_2    R_1_93_33_3    R_1_93_34_1    R_1_93_34_2    R_1_93_34_3
    R_1_93_35_1    R_1_93_35_2    R_1_93_35_3    R_1_93_36_1    R_1_93_36_2    R_1_93_36_3    R_1_93_37_1    R_1_93_37_2
    R_1_93_37_3    R_1_93_38_1    R_1_93_38_2    R_1_93_38_3    R_1_93_39_1    R_1_93_39_2    R_1_93_39_3     R_1_93_3_1
     R_1_93_3_2     R_1_93_3_3    R_1_93_40_1    R_1_93_40_2    R_1_93_40_3    R_1_93_41_1    R_1_93_41_2    R_1_93_41_3
    R_1_93_42_1    R_1_93_42_2    R_1_93_42_3    R_1_93_43_1    R_1_93_43_2    R_1_93_43_3    R_1_93_44_1    R_1_93_44_2
    R_1_93_44_3    R_1_93_45_1    R_1_93_45_2    R_1_93_45_3    R_1_93_46_1    R_1_93_46_2    R_1_93_46_3    R_1_93_47_1
    R_1_93_47_2    R_1_93_47_3    R_1_93_48_1    R_1_93_48_2    R_1_93_48_3    R_1_93_49_1    R_1_93_49_2    R_1_93_49_3
     R_1_93_4_1     R_1_93_4_2     R_1_93_4_3    R_1_93_50_1    R_1_93_50_2    R_1_93_50_3    R_1_93_51_1    R_1_93_51_2
    R_1_93_51_3    R_1_93_52_1    R_1_93_52_2    R_1_93_52_3    R_1_93_53_1    R_1_93_53_2    R_1_93_53_3    R_1_93_54_1
    R_1_93_54_2    R_1_93_54_3    R_1_93_55_1    R_1_93_55_2    R_1_93_55_3    R_1_93_56_1    R_1_93_56_2    R_1_93_56_3
    R_1_93_57_1    R_1_93_57_2    R_1_93_57_3    R_1_93_58_1    R_1_93_58_2    R_1_93_58_3    R_1_93_59_1    R_1_93_59_2
    R_1_93_59_3     R_1_93_5_1     R_1_93_5_2     R_1_93_5_3    R_1_93_60_1    R_1_93_60_2    R_1_93_60_3    R_1_93_61_1
    R_1_93_61_2    R_1_93_61_3    R_1_93_62_1    R_1_93_62_2    R_1_93_62_3    R_1_93_63_1    R_1_93_63_2    R_1_93_63_3
    R_1_93_64_1    R_1_93_64_2    R_1_93_64_3    R_1_93_65_1    R_1_93_65_2    R_1_93_65_3    R_1_93_66_1    R_1_93_66_2
    R_1_93_66_3    R_1_93_67_1    R_1_93_67_2    R_1_93_67_3    R_1_93_68_1    R_1_93_68_2    R_1_93_68_3    R_1_93_69_1
    R_1_93_69_2    R_1_93_69_3     R_1_93_6_1     R_1_93_6_2     R_1_93_6_3    R_1_93_70_1    R_1_93_70_2    R_1_93_70_3
    R_1_93_71_1    R_1_93_71_2    R_1_93_71_3    R_1_93_72_1    R_1_93_72_2    R_1_93_72_3    R_1_93_73_1    R_1_93_73_2
    R_1_93_73_3    R_1_93_74_1    R_1_93_74_2    R_1_93_74_3    R_1_93_75_1    R_1_93_75_2    R_1_93_75_3    R_1_93_76_1
    R_1_93_76_2    R_1_93_76_3    R_1_93_77_1    R_1_93_77_2    R_1_93_77_3    R_1_93_78_1    R_1_93_78_2    R_1_93_78_3
    R_1_93_79_1    R_1_93_79_2    R_1_93_79_3     R_1_93_7_1     R_1_93_7_2     R_1_93_7_3    R_1_93_80_1    R_1_93_80_2
    R_1_93_80_3    R_1_93_81_1    R_1_93_81_2    R_1_93_81_3    R_1_93_82_1    R_1_93_82_2    R_1_93_82_3    R_1_93_83_1
    R_1_93_83_2    R_1_93_83_3    R_1_93_84_1    R_1_93_84_2    R_1_93_84_3    R_1_93_85_1    R_1_93_85_2    R_1_93_85_3
    R_1_93_86_1    R_1_93_86_2    R_1_93_86_3    R_1_93_87_1    R_1_93_87_2    R_1_93_87_3    R_1_93_88_1    R_1_93_88_2
    R_1_93_88_3    R_1_93_89_1    R_1_93_89_2    R_1_93_89_3     R_1_93_8_1     R_1_93_8_2     R_1_93_8_3    R_1_93_90_1
    R_1_93_90_2    R_1_93_90_3    R_1_93_91_1    R_1_93_91_2    R_1_93_91_3    R_1_93_92_1    R_1_93_92_2    R_1_93_92_3
    R_1_93_93_1    R_1_93_93_2    R_1_93_93_3    R_1_93_94_1    R_1_93_94_2    R_1_93_94_3    R_1_93_95_1    R_1_93_95_2
    R_1_93_95_3    R_1_93_96_1    R_1_93_96_2    R_1_93_96_3    R_1_93_97_1    R_1_93_97_2    R_1_93_97_3    R_1_93_98_1
    R_1_93_98_2    R_1_93_98_3    R_1_93_99_2    R_1_93_99_3     R_1_93_9_1     R_1_93_9_2     R_1_93_9_3     R_1_94_0_1
     R_1_94_0_2     R_1_94_0_3    R_1_94_10_1    R_1_94_10_2    R_1_94_10_3    R_1_94_11_1    R_1_94_11_2    R_1_94_11_3
    R_1_94_12_1    R_1_94_12_2    R_1_94_12_3    R_1_94_13_1    R_1_94_13_2    R_1_94_13_3    R_1_94_14_1    R_1_94_14_2
    R_1_94_14_3    R_1_94_15_1    R_1_94_15_2    R_1_94_15_3    R_1_94_16_1    R_1_94_16_2    R_1_94_16_3    R_1_94_17_1
    R_1_94_17_2    R_1_94_17_3    R_1_94_18_1    R_1_94_18_2    R_1_94_18_3    R_1_94_19_1    R_1_94_19_2    R_1_94_19_3
     R_1_94_1_1     R_1_94_1_2     R_1_94_1_3    R_1_94_20_1    R_1_94_20_2    R_1_94_20_3    R_1_94_21_1    R_1_94_21_2
    R_1_94_21_3    R_1_94_22_1    R_1_94_22_2    R_1_94_22_3    R_1_94_23_1    R_1_94_23_2    R_1_94_23_3    R_1_94_24_1
    R_1_94_24_2    R_1_94_24_3    R_1_94_25_1    R_1_94_25_2    R_1_94_25_3    R_1_94_26_1    R_1_94_26_2    R_1_94_26_3
    R_1_94_27_1    R_1_94_27_2    R_1_94_27_3    R_1_94_28_1    R_1_94_28_2    R_1_94_28_3    R_1_94_29_1    R_1_94_29_2
    R_1_94_29_3     R_1_94_2_1     R_1_94_2_2     R_1_94_2_3    R_1_94_30_1    R_1_94_30_2    R_1_94_30_3    R_1_94_31_1
    R_1_94_31_2    R_1_94_31_3    R_1_94_32_1    R_1_94_32_2    R_1_94_32_3    R_1_94_33_1    R_1_94_33_2    R_1_94_33_3
    R_1_94_34_1    R_1_94_34_2    R_1_94_34_3    R_1_94_35_1    R_1_94_35_2    R_1_94_35_3    R_1_94_36_1    R_1_94_36_2
    R_1_94_36_3    R_1_94_37_1    R_1_94_37_2    R_1_94_37_3    R_1_94_38_1    R_1_94_38_2    R_1_94_38_3    R_1_94_39_1
    R_1_94_39_2    R_1_94_39_3     R_1_94_3_1     R_1_94_3_2     R_1_94_3_3    R_1_94_40_1    R_1_94_40_2    R_1_94_40_3
    R_1_94_41_1    R_1_94_41_2    R_1_94_41_3    R_1_94_42_1    R_1_94_42_2    R_1_94_42_3    R_1_94_43_1    R_1_94_43_2
    R_1_94_43_3    R_1_94_44_1    R_1_94_44_2    R_1_94_44_3    R_1_94_45_1    R_1_94_45_2    R_1_94_45_3    R_1_94_46_1
    R_1_94_46_2    R_1_94_46_3    R_1_94_47_1    R_1_94_47_2    R_1_94_47_3    R_1_94_48_1    R_1_94_48_2    R_1_94_48_3
    R_1_94_49_1    R_1_94_49_2    R_1_94_49_3     R_1_94_4_1     R_1_94_4_2     R_1_94_4_3    R_1_94_50_1    R_1_94_50_2
    R_1_94_50_3    R_1_94_51_1    R_1_94_51_2    R_1_94_51_3    R_1_94_52_1    R_1_94_52_2    R_1_94_52_3    R_1_94_53_1
    R_1_94_53_2    R_1_94_53_3    R_1_94_54_1    R_1_94_54_2    R_1_94_54_3    R_1_94_55_1    R_1_94_55_2    R_1_94_55_3
    R_1_94_56_1    R_1_94_56_2    R_1_94_56_3    R_1_94_57_1    R_1_94_57_2    R_1_94_57_3    R_1_94_58_1    R_1_94_58_2
    R_1_94_58_3    R_1_94_59_1    R_1_94_59_2    R_1_94_59_3     R_1_94_5_1     R_1_94_5_2     R_1_94_5_3    R_1_94_60_1
    R_1_94_60_2    R_1_94_60_3    R_1_94_61_1    R_1_94_61_2    R_1_94_61_3    R_1_94_62_1    R_1_94_62_2    R_1_94_62_3
    R_1_94_63_1    R_1_94_63_2    R_1_94_63_3    R_1_94_64_1    R_1_94_64_2    R_1_94_64_3    R_1_94_65_1    R_1_94_65_2
    R_1_94_65_3    R_1_94_66_1    R_1_94_66_2    R_1_94_66_3    R_1_94_67_1    R_1_94_67_2    R_1_94_67_3    R_1_94_68_1
    R_1_94_68_2    R_1_94_68_3    R_1_94_69_1    R_1_94_69_2    R_1_94_69_3     R_1_94_6_1     R_1_94_6_2     R_1_94_6_3
    R_1_94_70_1    R_1_94_70_2    R_1_94_70_3    R_1_94_71_1    R_1_94_71_2    R_1_94_71_3    R_1_94_72_1    R_1_94_72_2
    R_1_94_72_3    R_1_94_73_1    R_1_94_73_2    R_1_94_73_3    R_1_94_74_1    R_1_94_74_2    R_1_94_74_3    R_1_94_75_1
    R_1_94_75_2    R_1_94_75_3    R_1_94_76_1    R_1_94_76_2    R_1_94_76_3    R_1_94_77_1    R_1_94_77_2    R_1_94_77_3
    R_1_94_78_1    R_1_94_78_2    R_1_94_78_3    R_1_94_79_1    R_1_94_79_2    R_1_94_79_3     R_1_94_7_1     R_1_94_7_2
     R_1_94_7_3    R_1_94_80_1    R_1_94_80_2    R_1_94_80_3    R_1_94_81_1    R_1_94_81_2    R_1_94_81_3    R_1_94_82_1
    R_1_94_82_2    R_1_94_82_3    R_1_94_83_1    R_1_94_83_2    R_1_94_83_3    R_1_94_84_1    R_1_94_84_2    R_1_94_84_3
    R_1_94_85_1    R_1_94_85_2    R_1_94_85_3    R_1_94_86_1    R_1_94_86_2    R_1_94_86_3    R_1_94_87_1    R_1_94_87_2
    R_1_94_87_3    R_1_94_88_1    R_1_94_88_2    R_1_94_88_3    R_1_94_89_1    R_1_94_89_2    R_1_94_89_3     R_1_94_8_1
     R_1_94_8_2     R_1_94_8_3    R_1_94_90_1    R_1_94_90_2    R_1_94_90_3    R_1_94_91_1    R_1_94_91_2    R_1_94_91_3
    R_1_94_92_1    R_1_94_92_2    R_1_94_92_3    R_1_94_93_1    R_1_94_93_2    R_1_94_93_3    R_1_94_94_1    R_1_94_94_2
    R_1_94_94_3    R_1_94_95_1    R_1_94_95_2    R_1_94_95_3    R_1_94_96_1    R_1_94_96_2    R_1_94_96_3    R_1_94_97_1
    R_1_94_97_2    R_1_94_97_3    R_1_94_98_1    R_1_94_98_2    R_1_94_98_3    R_1_94_99_2    R_1_94_99_3     R_1_94_9_1
     R_1_94_9_2     R_1_94_9_3     R_1_95_0_1     R_1_95_0_2     R_1_95_0_3    R_1_95_10_1    R_1_95_10_2    R_1_95_10_3
    R_1_95_11_1    R_1_95_11_2    R_1_95_11_3    R_1_95_12_1    R_1_95_12_2    R_1_95_12_3    R_1_95_13_1    R_1_95_13_2
    R_1_95_13_3    R_1_95_14_1    R_1_95_14_2    R_1_95_14_3    R_1_95_15_1    R_1_95_15_2    R_1_95_15_3    R_1_95_16_1
    R_1_95_16_2    R_1_95_16_3    R_1_95_17_1    R_1_95_17_2    R_1_95_17_3    R_1_95_18_1    R_1_95_18_2    R_1_95_18_3
    R_1_95_19_1    R_1_95_19_2    R_1_95_19_3     R_1_95_1_1     R_1_95_1_2     R_1_95_1_3    R_1_95_20_1    R_1_95_20_2
    R_1_95_20_3    R_1_95_21_1    R_1_95_21_2    R_1_95_21_3    R_1_95_22_1    R_1_95_22_2    R_1_95_22_3    R_1_95_23_1
    R_1_95_23_2    R_1_95_23_3    R_1_95_24_1    R_1_95_24_2    R_1_95_24_3    R_1_95_25_1    R_1_95_25_2    R_1_95_25_3
    R_1_95_26_1    R_1_95_26_2    R_1_95_26_3    R_1_95_27_1    R_1_95_27_2    R_1_95_27_3    R_1_95_28_1    R_1_95_28_2
    R_1_95_28_3    R_1_95_29_1    R_1_95_29_2    R_1_95_29_3     R_1_95_2_1     R_1_95_2_2     R_1_95_2_3    R_1_95_30_1
    R_1_95_30_2    R_1_95_30_3    R_1_95_31_1    R_1_95_31_2    R_1_95_31_3    R_1_95_32_1    R_1_95_32_2    R_1_95_32_3
    R_1_95_33_1    R_1_95_33_2    R_1_95_33_3    R_1_95_34_1    R_1_95_34_2    R_1_95_34_3    R_1_95_35_1    R_1_95_35_2
    R_1_95_35_3    R_1_95_36_1    R_1_95_36_2    R_1_95_36_3    R_1_95_37_1    R_1_95_37_2    R_1_95_37_3    R_1_95_38_1
    R_1_95_38_2    R_1_95_38_3    R_1_95_39_1    R_1_95_39_2    R_1_95_39_3     R_1_95_3_1     R_1_95_3_2     R_1_95_3_3
    R_1_95_40_1    R_1_95_40_2    R_1_95_40_3    R_1_95_41_1    R_1_95_41_2    R_1_95_41_3    R_1_95_42_1    R_1_95_42_2
    R_1_95_42_3    R_1_95_43_1    R_1_95_43_2    R_1_95_43_3    R_1_95_44_1    R_1_95_44_2    R_1_95_44_3    R_1_95_45_1
    R_1_95_45_2    R_1_95_45_3    R_1_95_46_1    R_1_95_46_2    R_1_95_46_3    R_1_95_47_1    R_1_95_47_2    R_1_95_47_3
    R_1_95_48_1    R_1_95_48_2    R_1_95_48_3    R_1_95_49_1    R_1_95_49_2    R_1_95_49_3     R_1_95_4_1     R_1_95_4_2
     R_1_95_4_3    R_1_95_50_1    R_1_95_50_2    R_1_95_50_3    R_1_95_51_1    R_1_95_51_2    R_1_95_51_3    R_1_95_52_1
    R_1_95_52_2    R_1_95_52_3    R_1_95_53_1    R_1_95_53_2    R_1_95_53_3    R_1_95_54_1    R_1_95_54_2    R_1_95_54_3
    R_1_95_55_1    R_1_95_55_2    R_1_95_55_3    R_1_95_56_1    R_1_95_56_2    R_1_95_56_3    R_1_95_57_1    R_1_95_57_2
    R_1_95_57_3    R_1_95_58_1    R_1_95_58_2    R_1_95_58_3    R_1_95_59_1    R_1_95_59_2    R_1_95_59_3     R_1_95_5_1
     R_1_95_5_2     R_1_95_5_3    R_1_95_60_1    R_1_95_60_2    R_1_95_60_3    R_1_95_61_1    R_1_95_61_2    R_1_95_61_3
    R_1_95_62_1    R_1_95_62_2    R_1_95_62_3    R_1_95_63_1    R_1_95_63_2    R_1_95_63_3    R_1_95_64_1    R_1_95_64_2
    R_1_95_64_3    R_1_95_65_1    R_1_95_65_2    R_1_95_65_3    R_1_95_66_1    R_1_95_66_2    R_1_95_66_3    R_1_95_67_1
    R_1_95_67_2    R_1_95_67_3    R_1_95_68_1    R_1_95_68_2    R_1_95_68_3    R_1_95_69_1    R_1_95_69_2    R_1_95_69_3
     R_1_95_6_1     R_1_95_6_2     R_1_95_6_3    R_1_95_70_1    R_1_95_70_2    R_1_95_70_3    R_1_95_71_1    R_1_95_71_2
    R_1_95_71_3    R_1_95_72_1    R_1_95_72_2    R_1_95_72_3    R_1_95_73_1    R_1_95_73_2    R_1_95_73_3    R_1_95_74_1
    R_1_95_74_2    R_1_95_74_3    R_1_95_75_1    R_1_95_75_2    R_1_95_75_3    R_1_95_76_1    R_1_95_76_2    R_1_95_76_3
    R_1_95_77_1    R_1_95_77_2    R_1_95_77_3    R_1_95_78_1    R_1_95_78_2    R_1_95_78_3    R_1_95_79_1    R_1_95_79_2
    R_1_95_79_3     R_1_95_7_1     R_1_95_7_2     R_1_95_7_3    R_1_95_80_1    R_1_95_80_2    R_1_95_80_3    R_1_95_81_1
    R_1_95_81_2    R_1_95_81_3    R_1_95_82_1    R_1_95_82_2    R_1_95_82_3    R_1_95_83_1    R_1_95_83_2    R_1_95_83_3
    R_1_95_84_1    R_1_95_84_2    R_1_95_84_3    R_1_95_85_1    R_1_95_85_2    R_1_95_85_3    R_1_95_86_1    R_1_95_86_2
    R_1_95_86_3    R_1_95_87_1    R_1_95_87_2    R_1_95_87_3    R_1_95_88_1    R_1_95_88_2    R_1_95_88_3    R_1_95_89_1
    R_1_95_89_2    R_1_95_89_3     R_1_95_8_1     R_1_95_8_2     R_1_95_8_3    R_1_95_90_1    R_1_95_90_2    R_1_95_90_3
    R_1_95_91_1    R_1_95_91_2    R_1_95_91_3    R_1_95_92_1    R_1_95_92_2    R_1_95_92_3    R_1_95_93_1    R_1_95_93_2
    R_1_95_93_3    R_1_95_94_1    R_1_95_94_2    R_1_95_94_3    R_1_95_95_1    R_1_95_95_2    R_1_95_95_3    R_1_95_96_1
    R_1_95_96_2    R_1_95_96_3    R_1_95_97_1    R_1_95_97_2    R_1_95_97_3    R_1_95_98_1    R_1_95_98_2    R_1_95_98_3
    R_1_95_99_2    R_1_95_99_3     R_1_95_9_1     R_1_95_9_2     R_1_95_9_3     R_1_96_0_1     R_1_96_0_2     R_1_96_0_3
    R_1_96_10_1    R_1_96_10_2    R_1_96_10_3    R_1_96_11_1    R_1_96_11_2    R_1_96_11_3    R_1_96_12_1    R_1_96_12_2
    R_1_96_12_3    R_1_96_13_1    R_1_96_13_2    R_1_96_13_3    R_1_96_14_1    R_1_96_14_2    R_1_96_14_3    R_1_96_15_1
    R_1_96_15_2    R_1_96_15_3    R_1_96_16_1    R_1_96_16_2    R_1_96_16_3    R_1_96_17_1    R_1_96_17_2    R_1_96_17_3
    R_1_96_18_1    R_1_96_18_2    R_1_96_18_3    R_1_96_19_1    R_1_96_19_2    R_1_96_19_3     R_1_96_1_1     R_1_96_1_2
     R_1_96_1_3    R_1_96_20_1    R_1_96_20_2    R_1_96_20_3    R_1_96_21_1    R_1_96_21_2    R_1_96_21_3    R_1_96_22_1
    R_1_96_22_2    R_1_96_22_3    R_1_96_23_1    R_1_96_23_2    R_1_96_23_3    R_1_96_24_1    R_1_96_24_2    R_1_96_24_3
    R_1_96_25_1    R_1_96_25_2    R_1_96_25_3    R_1_96_26_1    R_1_96_26_2    R_1_96_26_3    R_1_96_27_1    R_1_96_27_2
    R_1_96_27_3    R_1_96_28_1    R_1_96_28_2    R_1_96_28_3    R_1_96_29_1    R_1_96_29_2    R_1_96_29_3     R_1_96_2_1
     R_1_96_2_2     R_1_96_2_3    R_1_96_30_1    R_1_96_30_2    R_1_96_30_3    R_1_96_31_1    R_1_96_31_2    R_1_96_31_3
    R_1_96_32_1    R_1_96_32_2    R_1_96_32_3    R_1_96_33_1    R_1_96_33_2    R_1_96_33_3    R_1_96_34_1    R_1_96_34_2
    R_1_96_34_3    R_1_96_35_1    R_1_96_35_2    R_1_96_35_3    R_1_96_36_1    R_1_96_36_2    R_1_96_36_3    R_1_96_37_1
    R_1_96_37_2    R_1_96_37_3    R_1_96_38_1    R_1_96_38_2    R_1_96_38_3    R_1_96_39_1    R_1_96_39_2    R_1_96_39_3
     R_1_96_3_1     R_1_96_3_2     R_1_96_3_3    R_1_96_40_1    R_1_96_40_2    R_1_96_40_3    R_1_96_41_1    R_1_96_41_2
    R_1_96_41_3    R_1_96_42_1    R_1_96_42_2    R_1_96_42_3    R_1_96_43_1    R_1_96_43_2    R_1_96_43_3    R_1_96_44_1
    R_1_96_44_2    R_1_96_44_3    R_1_96_45_1    R_1_96_45_2    R_1_96_45_3    R_1_96_46_1    R_1_96_46_2    R_1_96_46_3
    R_1_96_47_1    R_1_96_47_2    R_1_96_47_3    R_1_96_48_1    R_1_96_48_2    R_1_96_48_3    R_1_96_49_1    R_1_96_49_2
    R_1_96_49_3     R_1_96_4_1     R_1_96_4_2     R_1_96_4_3    R_1_96_50_1    R_1_96_50_2    R_1_96_50_3    R_1_96_51_1
    R_1_96_51_2    R_1_96_51_3    R_1_96_52_1    R_1_96_52_2    R_1_96_52_3    R_1_96_53_1    R_1_96_53_2    R_1_96_53_3
    R_1_96_54_1    R_1_96_54_2    R_1_96_54_3    R_1_96_55_1    R_1_96_55_2    R_1_96_55_3    R_1_96_56_1    R_1_96_56_2
    R_1_96_56_3    R_1_96_57_1    R_1_96_57_2    R_1_96_57_3    R_1_96_58_1    R_1_96_58_2    R_1_96_58_3    R_1_96_59_1
    R_1_96_59_2    R_1_96_59_3     R_1_96_5_1     R_1_96_5_2     R_1_96_5_3    R_1_96_60_1    R_1_96_60_2    R_1_96_60_3
    R_1_96_61_1    R_1_96_61_2    R_1_96_61_3    R_1_96_62_1    R_1_96_62_2    R_1_96_62_3    R_1_96_63_1    R_1_96_63_2
    R_1_96_63_3    R_1_96_64_1    R_1_96_64_2    R_1_96_64_3    R_1_96_65_1    R_1_96_65_2    R_1_96_65_3    R_1_96_66_1
    R_1_96_66_2    R_1_96_66_3    R_1_96_67_1    R_1_96_67_2    R_1_96_67_3    R_1_96_68_1    R_1_96_68_2    R_1_96_68_3
    R_1_96_69_1    R_1_96_69_2    R_1_96_69_3     R_1_96_6_1     R_1_96_6_2     R_1_96_6_3    R_1_96_70_1    R_1_96_70_2
    R_1_96_70_3    R_1_96_71_1    R_1_96_71_2    R_1_96_71_3    R_1_96_72_1    R_1_96_72_2    R_1_96_72_3    R_1_96_73_1
    R_1_96_73_2    R_1_96_73_3    R_1_96_74_1    R_1_96_74_2    R_1_96_74_3    R_1_96_75_1    R_1_96_75_2    R_1_96_75_3
    R_1_96_76_1    R_1_96_76_2    R_1_96_76_3    R_1_96_77_1    R_1_96_77_2    R_1_96_77_3    R_1_96_78_1    R_1_96_78_2
    R_1_96_78_3    R_1_96_79_1    R_1_96_79_2    R_1_96_79_3     R_1_96_7_1     R_1_96_7_2     R_1_96_7_3    R_1_96_80_1
    R_1_96_80_2    R_1_96_80_3    R_1_96_81_1    R_1_96_81_2    R_1_96_81_3    R_1_96_82_1    R_1_96_82_2    R_1_96_82_3
    R_1_96_83_1    R_1_96_83_2    R_1_96_83_3    R_1_96_84_1    R_1_96_84_2    R_1_96_84_3    R_1_96_85_1    R_1_96_85_2
    R_1_96_85_3    R_1_96_86_1    R_1_96_86_2    R_1_96_86_3    R_1_96_87_1    R_1_96_87_2    R_1_96_87_3    R_1_96_88_1
    R_1_96_88_2    R_1_96_88_3    R_1_96_89_1    R_1_96_89_2    R_1_96_89_3     R_1_96_8_1     R_1_96_8_2     R_1_96_8_3
    R_1_96_90_1    R_1_96_90_2    R_1_96_90_3    R_1_96_91_1    R_1_96_91_2    R_1_96_91_3    R_1_96_92_1    R_1_96_92_2
    R_1_96_92_3    R_1_96_93_1    R_1_96_93_2    R_1_96_93_3    R_1_96_94_1    R_1_96_94_2    R_1_96_94_3    R_1_96_95_1
    R_1_96_95_2    R_1_96_95_3    R_1_96_96_1    R_1_96_96_2    R_1_96_96_3    R_1_96_97_1    R_1_96_97_2    R_1_96_97_3
    R_1_96_98_1    R_1_96_98_2    R_1_96_98_3    R_1_96_99_2    R_1_96_99_3     R_1_96_9_1     R_1_96_9_2     R_1_96_9_3
     R_1_97_0_1     R_1_97_0_2     R_1_97_0_3    R_1_97_10_1    R_1_97_10_2    R_1_97_10_3    R_1_97_11_1    R_1_97_11_2
    R_1_97_11_3    R_1_97_12_1    R_1_97_12_2    R_1_97_12_3    R_1_97_13_1    R_1_97_13_2    R_1_97_13_3    R_1_97_14_1
    R_1_97_14_2    R_1_97_14_3    R_1_97_15_1    R_1_97_15_2    R_1_97_15_3    R_1_97_16_1    R_1_97_16_2    R_1_97_16_3
    R_1_97_17_1    R_1_97_17_2    R_1_97_17_3    R_1_97_18_1    R_1_97_18_2    R_1_97_18_3    R_1_97_19_1    R_1_97_19_2
    R_1_97_19_3     R_1_97_1_1     R_1_97_1_2     R_1_97_1_3    R_1_97_20_1    R_1_97_20_2    R_1_97_20_3    R_1_97_21_1
    R_1_97_21_2    R_1_97_21_3    R_1_97_22_1    R_1_97_22_2    R_1_97_22_3    R_1_97_23_1    R_1_97_23_2    R_1_97_23_3
    R_1_97_24_1    R_1_97_24_2    R_1_97_24_3    R_1_97_25_1    R_1_97_25_2    R_1_97_25_3    R_1_97_26_1    R_1_97_26_2
    R_1_97_26_3    R_1_97_27_1    R_1_97_27_2    R_1_97_27_3    R_1_97_28_1    R_1_97_28_2    R_1_97_28_3    R_1_97_29_1
    R_1_97_29_2    R_1_97_29_3     R_1_97_2_1     R_1_97_2_2     R_1_97_2_3    R_1_97_30_1    R_1_97_30_2    R_1_97_30_3
    R_1_97_31_1    R_1_97_31_2    R_1_97_31_3    R_1_97_32_1    R_1_97_32_2    R_1_97_32_3    R_1_97_33_1    R_1_97_33_2
    R_1_97_33_3    R_1_97_34_1    R_1_97_34_2    R_1_97_34_3    R_1_97_35_1    R_1_97_35_2    R_1_97_35_3    R_1_97_36_1
    R_1_97_36_2    R_1_97_36_3    R_1_97_37_1    R_1_97_37_2    R_1_97_37_3    R_1_97_38_1    R_1_97_38_2    R_1_97_38_3
    R_1_97_39_1    R_1_97_39_2    R_1_97_39_3     R_1_97_3_1     R_1_97_3_2     R_1_97_3_3    R_1_97_40_1    R_1_97_40_2
    R_1_97_40_3    R_1_97_41_1    R_1_97_41_2    R_1_97_41_3    R_1_97_42_1    R_1_97_42_2    R_1_97_42_3    R_1_97_43_1
    R_1_97_43_2    R_1_97_43_3    R_1_97_44_1    R_1_97_44_2    R_1_97_44_3    R_1_97_45_1    R_1_97_45_2    R_1_97_45_3
    R_1_97_46_1    R_1_97_46_2    R_1_97_46_3    R_1_97_47_1    R_1_97_47_2    R_1_97_47_3    R_1_97_48_1    R_1_97_48_2
    R_1_97_48_3    R_1_97_49_1    R_1_97_49_2    R_1_97_49_3     R_1_97_4_1     R_1_97_4_2     R_1_97_4_3    R_1_97_50_1
    R_1_97_50_2    R_1_97_50_3    R_1_97_51_1    R_1_97_51_2    R_1_97_51_3    R_1_97_52_1    R_1_97_52_2    R_1_97_52_3
    R_1_97_53_1    R_1_97_53_2    R_1_97_53_3    R_1_97_54_1    R_1_97_54_2    R_1_97_54_3    R_1_97_55_1    R_1_97_55_2
    R_1_97_55_3    R_1_97_56_1    R_1_97_56_2    R_1_97_56_3    R_1_97_57_1    R_1_97_57_2    R_1_97_57_3    R_1_97_58_1
    R_1_97_58_2    R_1_97_58_3    R_1_97_59_1    R_1_97_59_2    R_1_97_59_3     R_1_97_5_1     R_1_97_5_2     R_1_97_5_3
    R_1_97_60_1    R_1_97_60_2    R_1_97_60_3    R_1_97_61_1    R_1_97_61_2    R_1_97_61_3    R_1_97_62_1    R_1_97_62_2
    R_1_97_62_3    R_1_97_63_1    R_1_97_63_2    R_1_97_63_3    R_1_97_64_1    R_1_97_64_2    R_1_97_64_3    R_1_97_65_1
    R_1_97_65_2    R_1_97_65_3    R_1_97_66_1    R_1_97_66_2    R_1_97_66_3    R_1_97_67_1    R_1_97_67_2    R_1_97_67_3
    R_1_97_68_1    R_1_97_68_2    R_1_97_68_3    R_1_97_69_1    R_1_97_69_2    R_1_97_69_3     R_1_97_6_1     R_1_97_6_2
     R_1_97_6_3    R_1_97_70_1    R_1_97_70_2    R_1_97_70_3    R_1_97_71_1    R_1_97_71_2    R_1_97_71_3    R_1_97_72_1
    R_1_97_72_2    R_1_97_72_3    R_1_97_73_1    R_1_97_73_2    R_1_97_73_3    R_1_97_74_1    R_1_97_74_2    R_1_97_74_3
    R_1_97_75_1    R_1_97_75_2    R_1_97_75_3    R_1_97_76_1    R_1_97_76_2    R_1_97_76_3    R_1_97_77_1    R_1_97_77_2
    R_1_97_77_3    R_1_97_78_1    R_1_97_78_2    R_1_97_78_3    R_1_97_79_1    R_1_97_79_2    R_1_97_79_3     R_1_97_7_1
     R_1_97_7_2     R_1_97_7_3    R_1_97_80_1    R_1_97_80_2    R_1_97_80_3    R_1_97_81_1    R_1_97_81_2    R_1_97_81_3
    R_1_97_82_1    R_1_97_82_2    R_1_97_82_3    R_1_97_83_1    R_1_97_83_2    R_1_97_83_3    R_1_97_84_1    R_1_97_84_2
    R_1_97_84_3    R_1_97_85_1    R_1_97_85_2    R_1_97_85_3    R_1_97_86_1    R_1_97_86_2    R_1_97_86_3    R_1_97_87_1
    R_1_97_87_2    R_1_97_87_3    R_1_97_88_1    R_1_97_88_2    R_1_97_88_3    R_1_97_89_1    R_1_97_89_2    R_1_97_89_3
     R_1_97_8_1     R_1_97_8_2     R_1_97_8_3    R_1_97_90_1    R_1_97_90_2    R_1_97_90_3    R_1_97_91_1    R_1_97_91_2
    R_1_97_91_3    R_1_97_92_1    R_1_97_92_2    R_1_97_92_3    R_1_97_93_1    R_1_97_93_2    R_1_97_93_3    R_1_97_94_1
    R_1_97_94_2    R_1_97_94_3    R_1_97_95_1    R_1_97_95_2    R_1_97_95_3    R_1_97_96_1    R_1_97_96_2    R_1_97_96_3
    R_1_97_97_1    R_1_97_97_2    R_1_97_97_3    R_1_97_98_1    R_1_97_98_2    R_1_97_98_3    R_1_97_99_2    R_1_97_99_3
     R_1_97_9_1     R_1_97_9_2     R_1_97_9_3     R_1_98_0_1     R_1_98_0_2     R_1_98_0_3    R_1_98_10_1    R_1_98_10_2
    R_1_98_10_3    R_1_98_11_1    R_1_98_11_2    R_1_98_11_3    R_1_98_12_1    R_1_98_12_2    R_1_98_12_3    R_1_98_13_1
    R_1_98_13_2    R_1_98_13_3    R_1_98_14_1    R_1_98_14_2    R_1_98_14_3    R_1_98_15_1    R_1_98_15_2    R_1_98_15_3
    R_1_98_16_1    R_1_98_16_2    R_1_98_16_3    R_1_98_17_1    R_1_98_17_2    R_1_98_17_3    R_1_98_18_1    R_1_98_18_2
    R_1_98_18_3    R_1_98_19_1    R_1_98_19_2    R_1_98_19_3     R_1_98_1_1     R_1_98_1_2     R_1_98_1_3    R_1_98_20_1
    R_1_98_20_2    R_1_98_20_3    R_1_98_21_1    R_1_98_21_2    R_1_98_21_3    R_1_98_22_1    R_1_98_22_2    R_1_98_22_3
    R_1_98_23_1    R_1_98_23_2    R_1_98_23_3    R_1_98_24_1    R_1_98_24_2    R_1_98_24_3    R_1_98_25_1    R_1_98_25_2
    R_1_98_25_3    R_1_98_26_1    R_1_98_26_2    R_1_98_26_3    R_1_98_27_1    R_1_98_27_2    R_1_98_27_3    R_1_98_28_1
    R_1_98_28_2    R_1_98_28_3    R_1_98_29_1    R_1_98_29_2    R_1_98_29_3     R_1_98_2_1     R_1_98_2_2     R_1_98_2_3
    R_1_98_30_1    R_1_98_30_2    R_1_98_30_3    R_1_98_31_1    R_1_98_31_2    R_1_98_31_3    R_1_98_32_1    R_1_98_32_2
    R_1_98_32_3    R_1_98_33_1    R_1_98_33_2    R_1_98_33_3    R_1_98_34_1    R_1_98_34_2    R_1_98_34_3    R_1_98_35_1
    R_1_98_35_2    R_1_98_35_3    R_1_98_36_1    R_1_98_36_2    R_1_98_36_3    R_1_98_37_1    R_1_98_37_2    R_1_98_37_3
    R_1_98_38_1    R_1_98_38_2    R_1_98_38_3    R_1_98_39_1    R_1_98_39_2    R_1_98_39_3     R_1_98_3_1     R_1_98_3_2
     R_1_98_3_3    R_1_98_40_1    R_1_98_40_2    R_1_98_40_3    R_1_98_41_1    R_1_98_41_2    R_1_98_41_3    R_1_98_42_1
    R_1_98_42_2    R_1_98_42_3    R_1_98_43_1    R_1_98_43_2    R_1_98_43_3    R_1_98_44_1    R_1_98_44_2    R_1_98_44_3
    R_1_98_45_1    R_1_98_45_2    R_1_98_45_3    R_1_98_46_1    R_1_98_46_2    R_1_98_46_3    R_1_98_47_1    R_1_98_47_2
    R_1_98_47_3    R_1_98_48_1    R_1_98_48_2    R_1_98_48_3    R_1_98_49_1    R_1_98_49_2    R_1_98_49_3     R_1_98_4_1
     R_1_98_4_2     R_1_98_4_3    R_1_98_50_1    R_1_98_50_2    R_1_98_50_3    R_1_98_51_1    R_1_98_51_2    R_1_98_51_3
    R_1_98_52_1    R_1_98_52_2    R_1_98_52_3    R_1_98_53_1    R_1_98_53_2    R_1_98_53_3    R_1_98_54_1    R_1_98_54_2
    R_1_98_54_3    R_1_98_55_1    R_1_98_55_2    R_1_98_55_3    R_1_98_56_1    R_1_98_56_2    R_1_98_56_3    R_1_98_57_1
    R_1_98_57_2    R_1_98_57_3    R_1_98_58_1    R_1_98_58_2    R_1_98_58_3    R_1_98_59_1    R_1_98_59_2    R_1_98_59_3
     R_1_98_5_1     R_1_98_5_2     R_1_98_5_3    R_1_98_60_1    R_1_98_60_2    R_1_98_60_3    R_1_98_61_1    R_1_98_61_2
    R_1_98_61_3    R_1_98_62_1    R_1_98_62_2    R_1_98_62_3    R_1_98_63_1    R_1_98_63_2    R_1_98_63_3    R_1_98_64_1
    R_1_98_64_2    R_1_98_64_3    R_1_98_65_1    R_1_98_65_2    R_1_98_65_3    R_1_98_66_1    R_1_98_66_2    R_1_98_66_3
    R_1_98_67_1    R_1_98_67_2    R_1_98_67_3    R_1_98_68_1    R_1_98_68_2    R_1_98_68_3    R_1_98_69_1    R_1_98_69_2
    R_1_98_69_3     R_1_98_6_1     R_1_98_6_2     R_1_98_6_3    R_1_98_70_1    R_1_98_70_2    R_1_98_70_3    R_1_98_71_1
    R_1_98_71_2    R_1_98_71_3    R_1_98_72_1    R_1_98_72_2    R_1_98_72_3    R_1_98_73_1    R_1_98_73_2    R_1_98_73_3
    R_1_98_74_1    R_1_98_74_2    R_1_98_74_3    R_1_98_75_1    R_1_98_75_2    R_1_98_75_3    R_1_98_76_1    R_1_98_76_2
    R_1_98_76_3    R_1_98_77_1    R_1_98_77_2    R_1_98_77_3    R_1_98_78_1    R_1_98_78_2    R_1_98_78_3    R_1_98_79_1
    R_1_98_79_2    R_1_98_79_3     R_1_98_7_1     R_1_98_7_2     R_1_98_7_3    R_1_98_80_1    R_1_98_80_2    R_1_98_80_3
    R_1_98_81_1    R_1_98_81_2    R_1_98_81_3    R_1_98_82_1    R_1_98_82_2    R_1_98_82_3    R_1_98_83_1    R_1_98_83_2
    R_1_98_83_3    R_1_98_84_1    R_1_98_84_2    R_1_98_84_3    R_1_98_85_1    R_1_98_85_2    R_1_98_85_3    R_1_98_86_1
    R_1_98_86_2    R_1_98_86_3    R_1_98_87_1    R_1_98_87_2    R_1_98_87_3    R_1_98_88_1    R_1_98_88_2    R_1_98_88_3
    R_1_98_89_1    R_1_98_89_2    R_1_98_89_3     R_1_98_8_1     R_1_98_8_2     R_1_98_8_3    R_1_98_90_1    R_1_98_90_2
    R_1_98_90_3    R_1_98_91_1    R_1_98_91_2    R_1_98_91_3    R_1_98_92_1    R_1_98_92_2    R_1_98_92_3    R_1_98_93_1
    R_1_98_93_2    R_1_98_93_3    R_1_98_94_1    R_1_98_94_2    R_1_98_94_3    R_1_98_95_1    R_1_98_95_2    R_1_98_95_3
    R_1_98_96_1    R_1_98_96_2    R_1_98_96_3    R_1_98_97_1    R_1_98_97_2    R_1_98_97_3    R_1_98_98_1    R_1_98_98_2
    R_1_98_98_3    R_1_98_99_2    R_1_98_99_3     R_1_98_9_1     R_1_98_9_2     R_1_98_9_3     R_1_99_0_1     R_1_99_0_3
    R_1_99_10_1    R_1_99_10_3    R_1_99_11_1    R_1_99_11_3    R_1_99_12_1    R_1_99_12_3    R_1_99_13_1    R_1_99_13_3
    R_1_99_14_1    R_1_99_14_3    R_1_99_15_1    R_1_99_15_3    R_1_99_16_1    R_1_99_16_3    R_1_99_17_1    R_1_99_17_3
    R_1_99_18_1    R_1_99_18_3    R_1_99_19_1    R_1_99_19_3     R_1_99_1_1     R_1_99_1_3    R_1_99_20_1    R_1_99_20_3
    R_1_99_21_1    R_1_99_21_3    R_1_99_22_1    R_1_99_22_3    R_1_99_23_1    R_1_99_23_3    R_1_99_24_1    R_1_99_24_3
    R_1_99_25_1    R_1_99_25_3    R_1_99_26_1    R_1_99_26_3    R_1_99_27_1    R_1_99_27_3    R_1_99_28_1    R_1_99_28_3
    R_1_99_29_1    R_1_99_29_3     R_1_99_2_1     R_1_99_2_3    R_1_99_30_1    R_1_99_30_3    R_1_99_31_1    R_1_99_31_3
    R_1_99_32_1    R_1_99_32_3    R_1_99_33_1    R_1_99_33_3    R_1_99_34_1    R_1_99_34_3    R_1_99_35_1    R_1_99_35_3
    R_1_99_36_1    R_1_99_36_3    R_1_99_37_1    R_1_99_37_3    R_1_99_38_1    R_1_99_38_3    R_1_99_39_1    R_1_99_39_3
     R_1_99_3_1     R_1_99_3_3    R_1_99_40_1    R_1_99_40_3    R_1_99_41_1    R_1_99_41_3    R_1_99_42_1    R_1_99_42_3
    R_1_99_43_1    R_1_99_43_3    R_1_99_44_1    R_1_99_44_3    R_1_99_45_1    R_1_99_45_3    R_1_99_46_1    R_1_99_46_3
    R_1_99_47_1    R_1_99_47_3    R_1_99_48_1    R_1_99_48_3    R_1_99_49_1    R_1_99_49_3     R_1_99_4_1     R_1_99_4_3
    R_1_99_50_1    R_1_99_50_3    R_1_99_51_1    R_1_99_51_3    R_1_99_52_1    R_1_99_52_3    R_1_99_53_1    R_1_99_53_3
    R_1_99_54_1    R_1_99_54_3    R_1_99_55_1    R_1_99_55_3    R_1_99_56_1    R_1_99_56_3    R_1_99_57_1    R_1_99_57_3
    R_1_99_58_1    R_1_99_58_3    R_1_99_59_1    R_1_99_59_3     R_1_99_5_1     R_1_99_5_3    R_1_99_60_1    R_1_99_60_3
    R_1_99_61_1    R_1_99_61_3    R_1_99_62_1    R_1_99_62_3    R_1_99_63_1    R_1_99_63_3    R_1_99_64_1    R_1_99_64_3
    R_1_99_65_1    R_1_99_65_3    R_1_99_66_1    R_1_99_66_3    R_1_99_67_1    R_1_99_67_3    R_1_99_68_1    R_1_99_68_3
    R_1_99_69_1    R_1_99_69_3     R_1_99_6_1     R_1_99_6_3    R_1_99_70_1    R_1_99_70_3    R_1_99_71_1    R_1_99_71_3
    R_1_99_72_1    R_1_99_72_3    R_1_99_73_1    R_1_99_73_3    R_1_99_74_1    R_1_99_74_3    R_1_99_75_1    R_1_99_75_3
    R_1_99_76_1    R_1_99_76_3    R_1_99_77_1    R_1_99_77_3    R_1_99_78_1    R_1_99_78_3    R_1_99_79_1    R_1_99_79_3
     R_1_99_7_1     R_1_99_7_3    R_1_99_80_1    R_1_99_80_3    R_1_99_81_1    R_1_99_81_3    R_1_99_82_1    R_1_99_82_3
    R_1_99_83_1    R_1_99_83_3    R_1_99_84_1    R_1_99_84_3    R_1_99_85_1    R_1_99_85_3    R_1_99_86_1    R_1_99_86_3
    R_1_99_87_1    R_1_99_87_3    R_1_99_88_1    R_1_99_88_3    R_1_99_89_1    R_1_99_89_3     R_1_99_8_1     R_1_99_8_3
    R_1_99_90_1    R_1_99_90_3    R_1_99_91_1    R_1_99_91_3    R_1_99_92_1    R_1_99_92_3    R_1_99_93_1    R_1_99_93_3
    R_1_99_94_1    R_1_99_94_3    R_1_99_95_1    R_1_99_95_3    R_1_99_96_1    R_1_99_96_3    R_1_99_97_1    R_1_99_97_3
    R_1_99_98_1    R_1_99_98_3    R_1_99_99_3     R_1_99_9_1     R_1_99_9_3
         model R level 1 (Resistor)R level 1 (Resistor)R level 1 (Resistor)R level 1 (Resistor)R level 1 (Resistor)R level 1 (Resistor)R level 1 (Resistor)
R level 1 (Resistor)R level 1 (Resistor)R level 1 (Resistor)R level 1 (Resistor)R level 1 (Resistor)R level 1 (Resistor)R level 1 (Resistor)R level 1 (Resistor)
R level 1 (Resistor)R level 1 (Resistor)R level 1 (Resistor)R level 1 (Resistor)R level 1 (Resistor)R level 1 (Resistor)R level 1 (Resistor)R level 1 (Resistor)
R level 1 (Resistor)R level 1 (Resistor)R level 1 (Resistor)R level 1 (Resistor)R level 1 (Resistor)R level 1 (Resistor)R level 1 (Resistor)R level 1 (Resistor)
R level 1 (Resistor)R level 1 (Resistor)R level 1 (Resistor)R level 1 (Resistor)R level 1 (Resistor)R level 1 (Resistor)R level 1 (Resistor)R level 1 (Resistor)
R level 1 (Resistor)R level 1 (Resistor)R level 1 (Resistor)R level 1 (Resistor)R level 1 (Resistor)R level 1 (Resistor)R level 1 (Resistor)R level 1 (Resistor)
R level 1 (Resistor)R level 1 (Resistor)R level 1 (Resistor)R level 1 (Resistor)R level 1 (Resistor)R level 1 (Resistor)R level 1 (Resistor)R level 1 (Resistor)
R level 1 (Resistor)R level 1 (Resistor)R level 1 (Resistor)R level 1 (Resistor)R level 1 (Resistor)R level 1 (Resistor)R level 1 (Resistor)R level 1 (Resistor)
R level 1 (Resistor)R level 1 (Resistor)R level 1 (Resistor)R level 1 (Resistor)R level 1 (Resistor)R level 1 (Resistor)R level 1 (Resistor)R level 1 (Resistor)
R level 1 (Resistor)R level 1 (Resistor)R level 1 (Resistor)R level 1 (Resistor)R level 1 (Resistor)R level 1 (Resistor)R level 1 (Resistor)R level 1 (Resistor)
R level 1 (Resistor)R level 1 (Resistor)R level 1 (Resistor)R level 1 (Resistor)R level 1 (Resistor)R level 1 (Resistor)R level 1 (Resistor)R level 1 (Resistor)
R level 1 (Resistor)R level 1 (Resistor)R level 1 (Resistor)R level 1 (Resistor)R level 1 (Resistor)R level 1 (Resistor)R level 1 (Resistor)R level 1 (Resistor)
R level 1 (Resistor)R level 1 (Resistor)R level 1 (Resistor)R level 1 (Resistor)R level 1 (Resistor)R level 1 (Resistor)R level 1 (Resistor)R level 1 (Resistor)
R level 1 (Resistor)R level 1 (Resistor)R level 1 (Resistor)R level 1 (Resistor)R level 1 (Resistor)R level 1 (Resistor)R level 1 (Resistor)R level 1 (Resistor)
R level 1 (Resistor)R level 1 (Resistor)R level 1 (Resistor)R level 1 (Resistor)R level 1 (Resistor)R level 1 (Resistor)R level 1 (Resistor)R level 1 (Resistor)
R level 1 (Resistor)R level 1 (Resistor)R level 1 (Resistor)R level 1 (Resistor)R level 1 (Resistor)R level 1 (Resistor)R level 1 (Resistor)R level 1 (Resistor)
R level 1 (Resistor)R level 1 (Resistor)R level 1 (Resistor)R level 1 (Resistor)R level 1 (Resistor)R level 1 (Resistor)R level 1 (Resistor)R level 1 (Resistor)
R level 1 (Resistor)R level 1 (Resistor)R level 1 (Resistor)R level 1 (Resistor)R level 1 (Resistor)R level 1 (Resistor)R level 1 (Resistor)R level 1 (Resistor)
R level 1 (Resistor)R level 1 (Resistor)R level 1 (Resistor)R level 1 (Resistor)R level 1 (Resistor)R level 1 (Resistor)R level 1 (Resistor)R level 1 (Resistor)
R level 1 (Resistor)R level 1 (Resistor)R level 1 (Resistor)R level 1 (Resistor)R level 1 (Resistor)R level 1 (Resistor)R level 1 (Resistor)R level 1 (Resistor)
R level 1 (Resistor)R level 1 (Resistor)R level 1 (Resistor)R level 1 (Resistor)R level 1 (Resistor)R level 1 (Resistor)R level 1 (Resistor)R level 1 (Resistor)
R level 1 (Resistor)R level 1 (Resistor)R level 1 (Resistor)R level 1 (Resistor)R level 1 (Resistor)R level 1 (Resistor)R level 1 (Resistor)R level 1 (Resistor)
R level 1 (Resistor)R level 1 (Resistor)R level 1 (Resistor)R level 1 (Resistor)R level 1 (Resistor)R level 1 (Resistor)R level 1 (Resistor)R level 1 (Resistor)
R level 1 (Resistor)R level 1 (Resistor)R level 1 (Resistor)R level 1 (Resistor)R level 1 (Resistor)R level 1 (Resistor)R level 1 (Resistor)R level 1 (Resistor)
R level 1 (Resistor)R level 1 (Resistor)R level 1 (Resistor)R level 1 (Resistor)R level 1 (Resistor)R level 1 (Resistor)R level 1 (Resistor)R level 1 (Resistor)
R level 1 (Resistor)R level 1 (Resistor)R level 1 (Resistor)R level 1 (Resistor)R level 1 (Resistor)R level 1 (Resistor)R level 1 (Resistor)R level 1 (Resistor)
R level 1 (Resistor)R level 1 (Resistor)R level 1 (Resistor)R level 1 (Resistor)R level 1 (Resistor)R level 1 (Resistor)R level 1 (Resistor)R level 1 (Resistor)
R level 1 (Resistor)R level 1 (Resistor)R level 1 (Resistor)R level 1 (Resistor)R level 1 (Resistor)R level 1 (Resistor)R level 1 (Resistor)R level 1 (Resistor)
R level 1 (Resistor)R level 1 (Resistor)R level 1 (Resistor)R level 1 (Resistor)R level 1 (Resistor)R level 1 (Resistor)R level 1 (Resistor)R level 1 (Resistor)
R level 1 (Resistor)R level 1 (Resistor)R level 1 (Resistor)R level 1 (Resistor)R level 1 (Resistor)R level 1 (Resistor)R level 1 (Resistor)R level 1 (Resistor)
R level 1 (Resistor)R level 1 (Resistor)R level 1 (Resistor)R level 1 (Resistor)R level 1 (Resistor)R level 1 (Resistor)R level 1 (Resistor)R level 1 (Resistor)
R level 1 (Resistor)R level 1 (Resistor)R level 1 (Resistor)R level 1 (Resistor)R level 1 (Resistor)R level 1 (Resistor)R level 1 (Resistor)R level 1 (Resistor)
R level 1 (Resistor)R level 1 (Resistor)R level 1 (Resistor)R level 1 (Resistor)R level 1 (Resistor)R level 1 (Resistor)R level 1 (Resistor)R level 1 (Resistor)
R level 1 (Resistor)R level 1 (Resistor)R level 1 (Resistor)R level 1 (Resistor)R level 1 (Resistor)R level 1 (Resistor)R level 1 (Resistor)R level 1 (Resistor)
R level 1 (Resistor)R level 1 (Resistor)R level 1 (Resistor)R level 1 (Resistor)R level 1 (Resistor)R level 1 (Resistor)R level 1 (Resistor)R level 1 (Resistor)
R level 1 (Resistor)R level 1 (Resistor)R level 1 (Resistor)R level 1 (Resistor)R level 1 (Resistor)R level 1 (Resistor)R level 1 (Resistor)R level 1 (Resistor)
R level 1 (Resistor)R level 1 (Resistor)R level 1 (Resistor)R level 1 (Resistor)R level 1 (Resistor)R level 1 (Resistor)R level 1 (Resistor)R level 1 (Resistor)
R level 1 (Resistor)R level 1 (Resistor)R level 1 (Resistor)R level 1 (Resistor)R level 1 (Resistor)R level 1 (Resistor)R level 1 (Resistor)R level 1 (Resistor)
R level 1 (Resistor)R level 1 (Resistor)R level 1 (Resistor)R level 1 (Resistor)R level 1 (Resistor)R level 1 (Resistor)R level 1 (Resistor)R level 1 (Resistor)
R level 1 (Resistor)R level 1 (Resistor)R level 1 (Resistor)R level 1 (Resistor)R level 1 (Resistor)R level 1 (Resistor)R level 1 (Resistor)R level 1 (Resistor)
R level 1 (Resistor)R level 1 (Resistor)R level 1 (Resistor)R level 1 (Resistor)R level 1 (Resistor)R level 1 (Resistor)R level 1 (Resistor)R level 1 (Resistor)
R level 1 (Resistor)R level 1 (Resistor)R level 1 (Resistor)R level 1 (Resistor)R level 1 (Resistor)R level 1 (Resistor)R level 1 (Resistor)R level 1 (Resistor)
R level 1 (Resistor)R level 1 (Resistor)R level 1 (Resistor)R level 1 (Resistor)R level 1 (Resistor)R level 1 (Resistor)R level 1 (Resistor)R level 1 (Resistor)
R level 1 (Resistor)R level 1 (Resistor)R level 1 (Resistor)R level 1 (Resistor)R level 1 (Resistor)R level 1 (Resistor)R level 1 (Resistor)R level 1 (Resistor)
R level 1 (Resistor)R level 1 (Resistor)R level 1 (Resistor)R level 1 (Resistor)R level 1 (Resistor)R level 1 (Resistor)R level 1 (Resistor)R level 1 (Resistor)
R level 1 (Resistor)R level 1 (Resistor)R level 1 (Resistor)R level 1 (Resistor)R level 1 (Resistor)R level 1 (Resistor)R level 1 (Resistor)R level 1 (Resistor)
R level 1 (Resistor)R level 1 (Resistor)R level 1 (Resistor)R level 1 (Resistor)R level 1 (Resistor)R level 1 (Resistor)R level 1 (Resistor)R level 1 (Resistor)
R level 1 (Resistor)R level 1 (Resistor)R level 1 (Resistor)R level 1 (Resistor)R level 1 (Resistor)R level 1 (Resistor)R level 1 (Resistor)R level 1 (Resistor)
R level 1 (Resistor)R level 1 (Resistor)R level 1 (Resistor)R level 1 (Resistor)R level 1 (Resistor)R level 1 (Resistor)R level 1 (Resistor)R level 1 (Resistor)
R level 1 (Resistor)R level 1 (Resistor)R level 1 (Resistor)R level 1 (Resistor)R level 1 (Resistor)R level 1 (Resistor)R level 1 (Resistor)R level 1 (Resistor)
R level 1 (Resistor)R level 1 (Resistor)R level 1 (Resistor)R level 1 (Resistor)R level 1 (Resistor)R level 1 (Resistor)R level 1 (Resistor)R level 1 (Resistor)
R level 1 (Resistor)R level 1 (Resistor)R level 1 (Resistor)R level 1 (Resistor)R level 1 (Resistor)R level 1 (Resistor)R level 1 (Resistor)R level 1 (Resistor)
R level 1 (Resistor)R level 1 (Resistor)R level 1 (Resistor)R level 1 (Resistor)R level 1 (Resistor)R level 1 (Resistor)R level 1 (Resistor)R level 1 (Resistor)
R level 1 (Resistor)R level 1 (Resistor)R level 1 (Resistor)R level 1 (Resistor)R level 1 (Resistor)R level 1 (Resistor)R level 1 (Resistor)R level 1 (Resistor)
R level 1 (Resistor)R level 1 (Resistor)R level 1 (Resistor)R level 1 (Resistor)R level 1 (Resistor)R level 1 (Resistor)R level 1 (Resistor)R level 1 (Resistor)
R level 1 (Resistor)R level 1 (Resistor)R level 1 (Resistor)R level 1 (Resistor)R level 1 (Resistor)R level 1 (Resistor)R level 1 (Resistor)R level 1 (Resistor)
R level 1 (Resistor)R level 1 (Resistor)R level 1 (Resistor)R level 1 (Resistor)R level 1 (Resistor)R level 1 (Resistor)R level 1 (Resistor)R level 1 (Resistor)
R level 1 (Resistor)R level 1 (Resistor)R level 1 (Resistor)R level 1 (Resistor)R level 1 (Resistor)R level 1 (Resistor)R level 1 (Resistor)R level 1 (Resistor)
R level 1 (Resistor)R level 1 (Resistor)R level 1 (Resistor)R level 1 (Resistor)R level 1 (Resistor)R level 1 (Resistor)R level 1 (Resistor)R level 1 (Resistor)
R level 1 (Resistor)R level 1 (Resistor)R level 1 (Resistor)R level 1 (Resistor)R level 1 (Resistor)R level 1 (Resistor)R level 1 (Resistor)R level 1 (Resistor)
R level 1 (Resistor)R level 1 (Resistor)R level 1 (Resistor)R level 1 (Resistor)R level 1 (Resistor)R level 1 (Resistor)R level 1 (Resistor)R level 1 (Resistor)
R level 1 (Resistor)R level 1 (Resistor)R level 1 (Resistor)R level 1 (Resistor)R level 1 (Resistor)R level 1 (Resistor)R level 1 (Resistor)R level 1 (Resistor)
R level 1 (Resistor)R level 1 (Resistor)R level 1 (Resistor)R level 1 (Resistor)R level 1 (Resistor)R level 1 (Resistor)R level 1 (Resistor)R level 1 (Resistor)
R level 1 (Resistor)R level 1 (Resistor)R level 1 (Resistor)R level 1 (Resistor)R level 1 (Resistor)R level 1 (Resistor)R level 1 (Resistor)R level 1 (Resistor)
R level 1 (Resistor)R level 1 (Resistor)R level 1 (Resistor)R level 1 (Resistor)R level 1 (Resistor)R level 1 (Resistor)R level 1 (Resistor)R level 1 (Resistor)
R level 1 (Resistor)R level 1 (Resistor)R level 1 (Resistor)R level 1 (Resistor)R level 1 (Resistor)R level 1 (Resistor)R level 1 (Resistor)R level 1 (Resistor)
R level 1 (Resistor)R level 1 (Resistor)R level 1 (Resistor)R level 1 (Resistor)R level 1 (Resistor)R level 1 (Resistor)R level 1 (Resistor)R level 1 (Resistor)
R level 1 (Resistor)R level 1 (Resistor)R level 1 (Resistor)R level 1 (Resistor)R level 1 (Resistor)R level 1 (Resistor)R level 1 (Resistor)R level 1 (Resistor)
R level 1 (Resistor)R level 1 (Resistor)R level 1 (Resistor)R level 1 (Resistor)R level 1 (Resistor)R level 1 (Resistor)R level 1 (Resistor)R level 1 (Resistor)
R level 1 (Resistor)R level 1 (Resistor)R level 1 (Resistor)R level 1 (Resistor)R level 1 (Resistor)R level 1 (Resistor)R level 1 (Resistor)R level 1 (Resistor)
R level 1 (Resistor)R level 1 (Resistor)R level 1 (Resistor)R level 1 (Resistor)R level 1 (Resistor)R level 1 (Resistor)R level 1 (Resistor)R level 1 (Resistor)
R level 1 (Resistor)R level 1 (Resistor)R level 1 (Resistor)R level 1 (Resistor)R level 1 (Resistor)R level 1 (Resistor)R level 1 (Resistor)R level 1 (Resistor)
R level 1 (Resistor)R level 1 (Resistor)R level 1 (Resistor)R level 1 (Resistor)R level 1 (Resistor)R level 1 (Resistor)R level 1 (Resistor)R level 1 (Resistor)
R level 1 (Resistor)R level 1 (Resistor)R level 1 (Resistor)R level 1 (Resistor)R level 1 (Resistor)R level 1 (Resistor)R level 1 (Resistor)R level 1 (Resistor)
R level 1 (Resistor)R level 1 (Resistor)R level 1 (Resistor)R level 1 (Resistor)R level 1 (Resistor)R level 1 (Resistor)R level 1 (Resistor)R level 1 (Resistor)
R level 1 (Resistor)R level 1 (Resistor)R level 1 (Resistor)R level 1 (Resistor)R level 1 (Resistor)R level 1 (Resistor)R level 1 (Resistor)R level 1 (Resistor)
R level 1 (Resistor)R level 1 (Resistor)R level 1 (Resistor)R level 1 (Resistor)R level 1 (Resistor)R level 1 (Resistor)R level 1 (Resistor)R level 1 (Resistor)
R level 1 (Resistor)R level 1 (Resistor)R level 1 (Resistor)R level 1 (Resistor)R level 1 (Resistor)R level 1 (Resistor)R level 1 (Resistor)R level 1 (Resistor)
R level 1 (Resistor)R level 1 (Resistor)R level 1 (Resistor)R level 1 (Resistor)R level 1 (Resistor)R level 1 (Resistor)R level 1 (Resistor)R level 1 (Resistor)
R level 1 (Resistor)R level 1 (Resistor)R level 1 (Resistor)R level 1 (Resistor)R level 1 (Resistor)R level 1 (Resistor)R level 1 (Resistor)R level 1 (Resistor)
R level 1 (Resistor)R level 1 (Resistor)R level 1 (Resistor)R level 1 (Resistor)R level 1 (Resistor)R level 1 (Resistor)R level 1 (Resistor)R level 1 (Resistor)
R level 1 (Resistor)R level 1 (Resistor)R level 1 (Resistor)R level 1 (Resistor)R level 1 (Resistor)R level 1 (Resistor)R level 1 (Resistor)R level 1 (Resistor)
R level 1 (Resistor)R level 1 (Resistor)R level 1 (Resistor)R level 1 (Resistor)R level 1 (Resistor)R level 1 (Resistor)R level 1 (Resistor)R level 1 (Resistor)
R level 1 (Resistor)R level 1 (Resistor)R level 1 (Resistor)R level 1 (Resistor)R level 1 (Resistor)R level 1 (Resistor)R level 1 (Resistor)R level 1 (Resistor)
R level 1 (Resistor)R level 1 (Resistor)R level 1 (Resistor)R level 1 (Resistor)R level 1 (Resistor)R level 1 (Resistor)R level 1 (Resistor)R level 1 (Resistor)
[...]
              0              0              0              0              0              0              0              0
              0              0              0              0              0              0              0              0
              0              0              0              0              0              0              0              0
              0              0              0              0              0              0              0              0
              0              0              0              0              0              0              0              0
              0              0              0              0              0              0              0              0
              0              0              0              0              0              0              0              0
              0              0              0              0              0              0              0              0
              0              0              0              0              0              0              0              0
              0              0              0              0              0              0              0              0
              0              0              0              0              0              0              0              0
              0              0              0              0              0              0              0              0
              0              0              0              0              0              0              0              0
              0              0              0              0              0              0              0              0
              0              0              0              0              0              0              0              0
              0              0              0              0              0              0              0              0
              0              0              0              0              0              0              0              0
              0              0              0              0              0              0              0              0
              0              0              0              0              0              0              0              0
              0              0              0              0              0              0              0              0
              0              0              0              0              0              0              0              0
              0              0              0              0              0              0              0              0
              0              0              0              0              0              0              0              0
              0              0              0              0              0              0              0              0
              0              0              0              0              0              0              0              0
              0              0              0              0              0              0              0              0
              0              0              0              0              0              0              0              0
              0              0              0              0              0              0              0              0
              0              0              0              0              0              0              0              0
              0              0              0              0              0              0              0              0
              0              0              0              0              0              0              0              0
              0              0              0              0              0              0              0              0
              0              0              0              0              0              0              0              0
              0              0              0              0              0              0              0              0
              0              0              0              0              0              0              0              0
              0              0              0              0              0              0              0              0
              0              0              0              0              0              0              0              0
              0              0              0              0              0              0              0              0
              0              0              0              0              0              0              0              0
              0              0              0              0              0              0              0              0
              0              0              0              0              0              0              0              0
              0              0              0              0              0              0              0              0
              0              0              0              0              0              0              0              0
              0              0              0              0              0              0              0              0
              0              0              0              0              0              0              0              0
              0              0              0              0              0              0              0              0
              0              0              0              0              0              0              0              0
              0              0              0              0              0              0              0              0
              0              0              0              0              0              0              0              0
              0              0              0              0              0              0              0              0
              0              0              0              0              0              0              0              0
              0              0              0              0              0              0              0              0
              0              0              0              0              0              0              0              0
              0              0              0              0              0              0              0              0
              0              0              0              0              0              0              0              0
              0              0              0              0              0              0              0              0
              0              0              0              0              0              0              0              0
              0              0              0              0              0              0              0              0
              0              0              0              0              0              0              0              0
              0              0              0              0              0              0              0              0
              0              0              0              0              0              0              0              0
              0              0              0              0              0              0              0              0
              0              0              0              0              0              0              0              0
              0              0              0              0              0              0              0              0
              0              0              0              0              0              0              0              0
              0              0              0              0              0              0              0              0
              0              0              0              0              0              0              0              0
              0              0              0              0              0              0              0              0
              0              0              0              0              0              0              0              0
              0              0              0              0              0              0              0              0
              0              0              0              0              0              0              0              0
              0              0              0              0              0              0              0              0
              0              0              0              0              0              0              0              0
              0              0              0              0              0              0              0              0
              0              0              0              0              0              0              0              0
              0              0              0              0              0              0              0              0
              0              0              0              0              0              0              0              0
              0              0              0              0              0              0              0              0
              0              0              0              0              0              0              0              0
              0              0              0              0              0              0              0              0
              0              0              0              0              0              0              0              0
              0              0              0              0              0              0              0              0
              0              0              0              0              0              0              0              0
              0              0              0              0              0              0              0              0
              0              0              0              0              0              0              0              0
              0              0              0              0              0              0              0              0
              0              0              0              0              0              0              0              0
              0              0              0              0              0              0              0              0
              0              0              0              0              0              0              0              0
              0              0              0              0              0              0              0              0
              0              0              0              0              0              0              0              0
              0              0              0              0              0              0              0              0
              0              0              0              0              0              0              0              0
              0              0              0              0              0              0              0              0
              0              0              0              0              0              0              0              0
              0              0              0              0              0              0              0              0
              0              0              0              0              0              0              0              0
              0              0              0              0              0              0              0              0
              0              0              0              0              0              0              0              0
              0              0              0              0              0              0              0              0
              0              0              0              0              0              0              0              0
              0              0              0              0              0              0              0              0
              0              0              0              0              0              0              0              0
              0              0              0              0              0              0              0              0
              0              0              0              0              0              0              0              0
              0              0              0              0              0              0              0              0
              0              0              0              0              0              0              0              0
              0              0              0              0              0              0              0              0
              0              0              0              0              0              0              0              0
              0              0              0              0              0              0              0              0
              0              0              0              0              0              0              0              0
              0              0              0              0              0              0              0              0
              0              0              0              0              0              0              0              0
              0              0              0              0              0              0              0              0
              0              0              0              0              0              0              0              0
              0              0              0              0              0              0              0              0
              0              0              0              0              0              0              0              0
              0              0              0              0              0

------------------------------------------------------------

***** Solution Summary *****
	Number Successful Steps Taken:		1
	Number Failed Steps Attempted:		0
	Number Jacobians Evaluated:		3
	Number Linear Solves:			3
	Number Failed Linear Solves:		0
	Number Residual Evaluations:		4
	Number Nonlinear Convergence Failures:	0
	Total Residual Load Time:		0.1544 seconds
	Total Jacobian Load Time:		0.071403 seconds
	Total Linear Solution Time:		3.43601 seconds


***** Total Simulation Solvers Run Time: 8.26022 seconds
***** Total Elapsed Run Time:            19.3974 seconds
*****
***** End of Xyce(TM) Simulation
*****

Timing summary of processor 0
                 Stats                   Count       CPU Time              Wall Time
---------------------------------------- ----- --------------------- ---------------------
Xyce                                         1        2.768 (100.0%)       19.841 (100.0%)
  Analysis                                   1        0.905 (32.70%)        8.232 (41.49%)
    DC Sweep                                 1        0.892 (32.24%)        8.161 (41.13%)
      Solve                                  1        0.778 (28.13%)        3.820 (19.26%)
        Residual                             4        0.020 ( 0.73%)        0.154 ( 0.78%)
        Jacobian                             3        0.012 ( 0.42%)        0.071 ( 0.36%)
        Linear Solve                         3        0.734 (26.53%)        3.436 (17.32%)
      Successful Step                        1        0.113 ( 4.07%)        4.330 (21.83%)
  Netlist Import                             1        0.856 (30.94%)        4.521 (22.79%)
    Parse Context                            1        0.258 ( 9.34%)        1.482 ( 7.47%)
    Distribute Devices                       1        0.460 (16.62%)        2.076 (10.46%)
    Verify Devices                           1        0.000 (<0.01%)        0.000 (<0.01%)
    Instantiate                              1        0.017 ( 0.63%)        0.067 ( 0.34%)
  Late Initialization                        1        0.958 (34.62%)        6.553 (33.03%)
    Global Indices                           1        0.109 ( 3.95%)        0.721 ( 3.63%)
  Setup Matrix Structure                     1        0.025 ( 0.90%)        0.163 ( 0.82%)


Timing summary of 16 processors
                                                     CPU Time              CPU Time              CPU Time              Wall Time             Wall Time             Wall Time
                 Stats                   Count   Sum (% of System)     Min (% of System)     Max (% of System)     Sum (% of System)     Min (% of System)     Max (% of System)
---------------------------------------- ----- --------------------- --------------------- --------------------- --------------------- --------------------- ---------------------
Xyce                                        16       32.009 (100.0%)        1.822 ( 5.69%)        2.769 ( 8.65%)     5:11.711 (100.0%)       19.327 ( 6.20%)       19.846 ( 6.37%)
  Analysis                                  16        8.982 (28.06%)        0.446 ( 1.39%)        0.905 ( 2.83%)     2:08.960 (41.37%)        8.025 ( 2.57%)        8.232 ( 2.64%)
    DC Sweep                                16        8.753 (27.35%)        0.431 ( 1.35%)        0.892 ( 2.79%)     2:07.956 (41.05%)        7.978 ( 2.56%)        8.161 ( 2.62%)
      Solve                                 16        4.742 (14.82%)        0.216 ( 0.67%)        0.778 ( 2.43%)     1:01.057 (19.59%)        3.809 ( 1.22%)        3.823 ( 1.23%)
        Residual                            64        0.349 ( 1.09%)        0.015 ( 0.05%)        0.056 ( 0.18%)        2.480 ( 0.80%)        0.153 ( 0.05%)        0.167 ( 0.05%)
        Jacobian                            48        0.135 ( 0.42%)        0.005 ( 0.02%)        0.018 ( 0.06%)        1.157 ( 0.37%)        0.069 ( 0.02%)        0.075 ( 0.02%)
        Linear Solve                        48        3.967 (12.39%)        0.178 ( 0.55%)        0.734 ( 2.29%)       54.870 (17.60%)        3.410 ( 1.09%)        3.437 ( 1.10%)
      Successful Step                       16        3.996 (12.48%)        0.113 ( 0.35%)        0.466 ( 1.46%)     1:06.790 (21.43%)        4.151 ( 1.33%)        4.330 ( 1.39%)
  Netlist Import                            16        6.896 (21.54%)        0.368 ( 1.15%)        0.856 ( 2.68%)     1:12.209 (23.17%)        4.499 ( 1.44%)        4.522 ( 1.45%)
    Parse Context                           16        1.521 ( 4.75%)        0.063 ( 0.20%)        0.258 ( 0.81%)       23.583 ( 7.57%)        1.462 ( 0.47%)        1.483 ( 0.48%)
    Distribute Devices                      16        3.441 (10.75%)        0.183 ( 0.57%)        0.460 ( 1.44%)       32.595 (10.46%)        1.993 ( 0.64%)        2.084 ( 0.67%)
    Verify Devices                          16        0.000 (<0.01%)        0.000 (<0.01%)        0.000 (<0.01%)        0.000 (<0.01%)        0.000 (<0.01%)        0.000 (<0.01%)
    Instantiate                             16        0.416 ( 1.30%)        0.017 ( 0.05%)        0.033 ( 0.10%)        1.731 ( 0.56%)        0.067 ( 0.02%)        0.135 ( 0.04%)
  Late Initialization                       16       15.600 (48.74%)        0.938 ( 2.93%)        1.073 ( 3.35%)     1:45.111 (33.72%)        6.553 ( 2.10%)        6.581 ( 2.11%)
    Global Indices                          16        1.669 ( 5.21%)        0.093 ( 0.29%)        0.115 ( 0.36%)       10.670 ( 3.42%)        0.607 ( 0.19%)        0.721 ( 0.23%)
  Setup Matrix Structure                    16        0.404 ( 1.26%)        0.020 ( 0.06%)        0.034 ( 0.11%)        2.679 ( 0.86%)        0.163 ( 0.05%)        0.171 ( 0.05%)

